
     RDKit          3D

 33 33  0  0  0  0  0  0  0  0999 V2000
   -3.3997   -1.0951    0.0711 C   0  0  0  0  0  0  0  0  0  0  0  0
   -3.3005    0.3626    0.4063 C   0  0  0  0  0  0  0  0  0  0  0  0
   -1.8628    0.8090    0.2409 C   0  0  0  0  0  0  0  0  0  0  0  0
   -4.2163    1.2338   -0.4069 C   0  0  0  0  0  0  0  0  0  0  0  0
   -3.9187    2.6601   -0.3154 C   0  0  0  0  0  0  0  0  0  0  0  0
   -3.4347    3.3362   -1.4115 C   0  0  0  0  0  0  0  0  0  0  0  0
   -3.1483    4.6847   -1.3418 C   0  0  0  0  0  0  0  0  0  0  0  0
   -3.3311    5.4113   -0.1841 C   0  0  0  0  0  0  0  0  0  0  0  0
   -3.8169    4.7119    0.9003 C   0  0  0  0  0  0  0  0  0  0  0  0
   -4.1061    3.3669    0.8426 C   0  0  0  0  0  0  0  0  0  0  0  0
   -3.0485    6.8342   -0.0456 C   0  0  1  0  0  0  0  0  0  0  0  0
   -3.7570    7.3372    1.2243 C   0  0  0  0  0  0  0  0  0  0  0  0
   -1.6309    7.1682    0.1266 C   0  0  0  0  0  0  0  0  0  0  0  0
   -1.3309    8.3484    0.4315 O   0  0  0  0  0  0  0  0  0  0  0  0
   -0.5853    6.2779   -0.0214 O   0  0  0  0  0  0  0  0  0  0  0  0
   -2.5449   -1.6973    0.3651 H   0  0  0  0  0  0  0  0  0  0  0  0
   -3.5675   -1.2254   -1.0377 H   0  0  0  0  0  0  0  0  0  0  0  0
   -4.3062   -1.5255    0.5456 H   0  0  0  0  0  0  0  0  0  0  0  0
   -3.5638    0.5075    1.4746 H   0  0  0  0  0  0  0  0  0  0  0  0
   -1.8652    1.7254   -0.3754 H   0  0  0  0  0  0  0  0  0  0  0  0
   -1.3323   -0.0262   -0.2663 H   0  0  0  0  0  0  0  0  0  0  0  0
   -1.4513    0.9824    1.2629 H   0  0  0  0  0  0  0  0  0  0  0  0
   -5.2588    0.9727   -0.1076 H   0  0  0  0  0  0  0  0  0  0  0  0
   -4.1337    0.9265   -1.4789 H   0  0  0  0  0  0  0  0  0  0  0  0
   -3.2690    2.8073   -2.3624 H   0  0  0  0  0  0  0  0  0  0  0  0
   -2.7724    5.1545   -2.2349 H   0  0  0  0  0  0  0  0  0  0  0  0
   -3.9816    5.2520    1.8564 H   0  0  0  0  0  0  0  0  0  0  0  0
   -4.4852    2.9102    1.7560 H   0  0  0  0  0  0  0  0  0  0  0  0
   -3.4537    7.3774   -0.9214 H   0  0  0  0  0  0  0  0  0  0  0  0
   -4.7155    7.7999    0.9404 H   0  0  0  0  0  0  0  0  0  0  0  0
   -3.1142    8.0731    1.7635 H   0  0  0  0  0  0  0  0  0  0  0  0
   -3.9268    6.4988    1.9275 H   0  0  0  0  0  0  0  0  0  0  0  0
   -0.7819    5.4448   -0.5859 H   0  0  0  0  0  0  0  0  0  0  0  0
  1  2  1  0
  2  3  1  0
  2  4  1  0
  4  5  1  0
  5  6  2  0
  6  7  1  0
  7  8  2  0
  8  9  1  0
  9 10  2  0
  8 11  1  0
 11 12  1  0
 11 13  1  0
 13 14  2  0
 13 15  1  0
 10  5  1  0
  1 16  1  0
  1 17  1  0
  1 18  1  0
  2 19  1  0
  3 20  1  0
  3 21  1  0
  3 22  1  0
  4 23  1  0
  4 24  1  0
  6 25  1  0
  7 26  1  0
  9 27  1  0
 10 28  1  0
 11 29  1  6
 12 30  1  0
 12 31  1  0
 12 32  1  0
 15 33  1  0
M  END
>  <gfn_energy_norm>  (1) 
-1.000001

$$$$

     RDKit          3D

 33 33  0  0  0  0  0  0  0  0999 V2000
   -3.3997   -1.0951    0.0711 C   0  0  0  0  0  0  0  0  0  0  0  0
   -3.3005    0.3626    0.4063 C   0  0  0  0  0  0  0  0  0  0  0  0
   -3.8981    0.5941    1.7784 C   0  0  0  0  0  0  0  0  0  0  0  0
   -1.8991    0.9027    0.3473 C   0  0  0  0  0  0  0  0  0  0  0  0
   -1.6317    1.7402   -0.8182 C   0  0  0  0  0  0  0  0  0  0  0  0
   -1.7905    1.2302   -2.0859 C   0  0  0  0  0  0  0  0  0  0  0  0
   -1.5419    2.0086   -3.1984 C   0  0  0  0  0  0  0  0  0  0  0  0
   -1.1274    3.3197   -3.0946 C   0  0  0  0  0  0  0  0  0  0  0  0
   -0.9755    3.8080   -1.8141 C   0  0  0  0  0  0  0  0  0  0  0  0
   -1.2205    3.0409   -0.6971 C   0  0  0  0  0  0  0  0  0  0  0  0
   -0.8488    4.1929   -4.2277 C   0  0  1  0  0  0  0  0  0  0  0  0
   -2.1949    4.6509   -4.8158 C   0  0  0  0  0  0  0  0  0  0  0  0
   -0.1172    5.4199   -3.8962 C   0  0  0  0  0  0  0  0  0  0  0  0
    0.6021    5.9412   -4.7832 O   0  0  0  0  0  0  0  0  0  0  0  0
   -0.1559    6.0570   -2.6713 O   0  0  0  0  0  0  0  0  0  0  0  0
   -2.5449   -1.6973    0.3651 H   0  0  0  0  0  0  0  0  0  0  0  0
   -3.5675   -1.2254   -1.0377 H   0  0  0  0  0  0  0  0  0  0  0  0
   -4.3062   -1.5255    0.5456 H   0  0  0  0  0  0  0  0  0  0  0  0
   -3.9122    0.9427   -0.3155 H   0  0  0  0  0  0  0  0  0  0  0  0
   -3.1409    1.1159    2.3899 H   0  0  0  0  0  0  0  0  0  0  0  0
   -4.1367   -0.4111    2.1893 H   0  0  0  0  0  0  0  0  0  0  0  0
   -4.8244    1.1990    1.6374 H   0  0  0  0  0  0  0  0  0  0  0  0
   -1.2129    0.0278    0.4383 H   0  0  0  0  0  0  0  0  0  0  0  0
   -1.7187    1.5132    1.2666 H   0  0  0  0  0  0  0  0  0  0  0  0
   -2.1194    0.1897   -2.2295 H   0  0  0  0  0  0  0  0  0  0  0  0
   -1.6852    1.5496   -4.1619 H   0  0  0  0  0  0  0  0  0  0  0  0
   -0.6434    4.8586   -1.6769 H   0  0  0  0  0  0  0  0  0  0  0  0
   -1.0699    3.5232    0.2679 H   0  0  0  0  0  0  0  0  0  0  0  0
   -0.2933    3.6273   -5.0009 H   0  0  0  0  0  0  0  0  0  0  0  0
   -2.6026    5.4604   -4.1897 H   0  0  0  0  0  0  0  0  0  0  0  0
   -2.9109    3.7961   -4.8618 H   0  0  0  0  0  0  0  0  0  0  0  0
   -2.0603    4.9999   -5.8581 H   0  0  0  0  0  0  0  0  0  0  0  0
   -0.1728    7.0818   -2.6989 H   0  0  0  0  0  0  0  0  0  0  0  0
  1  2  1  0
  2  3  1  0
  2  4  1  0
  4  5  1  0
  5  6  2  0
  6  7  1  0
  7  8  2  0
  8  9  1  0
  9 10  2  0
  8 11  1  0
 11 12  1  0
 11 13  1  0
 13 14  2  0
 13 15  1  0
 10  5  1  0
  1 16  1  0
  1 17  1  0
  1 18  1  0
  2 19  1  0
  3 20  1  0
  3 21  1  0
  3 22  1  0
  4 23  1  0
  4 24  1  0
  6 25  1  0
  7 26  1  0
  9 27  1  0
 10 28  1  0
 11 29  1  6
 12 30  1  0
 12 31  1  0
 12 32  1  0
 15 33  1  0
M  END
>  <gfn_energy_norm>  (2) 
-1.000001

$$$$

     RDKit          3D

 33 33  0  0  0  0  0  0  0  0999 V2000
   -3.3997   -1.0951    0.0711 C   0  0  0  0  0  0  0  0  0  0  0  0
   -3.3005    0.3626    0.4063 C   0  0  0  0  0  0  0  0  0  0  0  0
   -3.2333    0.5183    1.9112 C   0  0  0  0  0  0  0  0  0  0  0  0
   -2.1359    1.0549   -0.2445 C   0  0  0  0  0  0  0  0  0  0  0  0
   -0.8681    0.8752    0.4567 C   0  0  0  0  0  0  0  0  0  0  0  0
    0.2878    1.4158   -0.0571 C   0  0  0  0  0  0  0  0  0  0  0  0
    1.4946    1.2551    0.5934 C   0  0  0  0  0  0  0  0  0  0  0  0
    1.5992    0.5535    1.7759 C   0  0  0  0  0  0  0  0  0  0  0  0
    0.4274    0.0214    2.2708 C   0  0  0  0  0  0  0  0  0  0  0  0
   -0.7820    0.1751    1.6307 C   0  0  0  0  0  0  0  0  0  0  0  0
    2.8409    0.3483    2.5107 C   0  0  1  0  0  0  0  0  0  0  0  0
    3.1992   -1.1458    2.4289 C   0  0  0  0  0  0  0  0  0  0  0  0
    4.0009    1.0691    1.9762 C   0  0  0  0  0  0  0  0  0  0  0  0
    4.9918    1.2410    2.7273 O   0  0  0  0  0  0  0  0  0  0  0  0
    4.0927    1.5810    0.6966 O   0  0  0  0  0  0  0  0  0  0  0  0
   -2.5449   -1.6973    0.3651 H   0  0  0  0  0  0  0  0  0  0  0  0
   -3.5675   -1.2254   -1.0377 H   0  0  0  0  0  0  0  0  0  0  0  0
   -4.3062   -1.5255    0.5456 H   0  0  0  0  0  0  0  0  0  0  0  0
   -4.2247    0.8757    0.0685 H   0  0  0  0  0  0  0  0  0  0  0  0
   -3.0759    1.5892    2.1305 H   0  0  0  0  0  0  0  0  0  0  0  0
   -2.3753   -0.1015    2.2517 H   0  0  0  0  0  0  0  0  0  0  0  0
   -4.1944    0.1338    2.3262 H   0  0  0  0  0  0  0  0  0  0  0  0
   -2.4288    2.1233   -0.3756 H   0  0  0  0  0  0  0  0  0  0  0  0
   -2.0229    0.6528   -1.2818 H   0  0  0  0  0  0  0  0  0  0  0  0
    0.2645    1.9860   -0.9983 H   0  0  0  0  0  0  0  0  0  0  0  0
    2.3620    1.7030    0.1387 H   0  0  0  0  0  0  0  0  0  0  0  0
    0.4586   -0.5527    3.2208 H   0  0  0  0  0  0  0  0  0  0  0  0
   -1.6472   -0.2851    2.1063 H   0  0  0  0  0  0  0  0  0  0  0  0
    2.6905    0.6235    3.5727 H   0  0  0  0  0  0  0  0  0  0  0  0
    2.5316   -1.6351    1.7019 H   0  0  0  0  0  0  0  0  0  0  0  0
    3.1009   -1.6255    3.4317 H   0  0  0  0  0  0  0  0  0  0  0  0
    4.2570   -1.2717    2.1265 H   0  0  0  0  0  0  0  0  0  0  0  0
    3.7562    2.5415    0.5724 H   0  0  0  0  0  0  0  0  0  0  0  0
  1  2  1  0
  2  3  1  0
  2  4  1  0
  4  5  1  0
  5  6  2  0
  6  7  1  0
  7  8  2  0
  8  9  1  0
  9 10  2  0
  8 11  1  0
 11 12  1  0
 11 13  1  0
 13 14  2  0
 13 15  1  0
 10  5  1  0
  1 16  1  0
  1 17  1  0
  1 18  1  0
  2 19  1  0
  3 20  1  0
  3 21  1  0
  3 22  1  0
  4 23  1  0
  4 24  1  0
  6 25  1  0
  7 26  1  0
  9 27  1  0
 10 28  1  0
 11 29  1  1
 12 30  1  0
 12 31  1  0
 12 32  1  0
 15 33  1  0
M  END
>  <gfn_energy_norm>  (3) 
-0.978479

$$$$

     RDKit          3D

 33 33  0  0  0  0  0  0  0  0999 V2000
   -3.3997   -1.0951    0.0711 C   0  0  0  0  0  0  0  0  0  0  0  0
   -3.3005    0.3626    0.4063 C   0  0  0  0  0  0  0  0  0  0  0  0
   -1.9342    0.6398    0.9979 C   0  0  0  0  0  0  0  0  0  0  0  0
   -3.5591    1.2709   -0.7630 C   0  0  0  0  0  0  0  0  0  0  0  0
   -3.2550    2.6753   -0.5053 C   0  0  0  0  0  0  0  0  0  0  0  0
   -3.5448    3.2311    0.7194 C   0  0  0  0  0  0  0  0  0  0  0  0
   -3.2637    4.5573    0.9793 C   0  0  0  0  0  0  0  0  0  0  0  0
   -2.6855    5.3799    0.0355 C   0  0  0  0  0  0  0  0  0  0  0  0
   -2.4045    4.8002   -1.1835 C   0  0  0  0  0  0  0  0  0  0  0  0
   -2.6805    3.4786   -1.4542 C   0  0  0  0  0  0  0  0  0  0  0  0
   -2.3641    6.7856    0.2469 C   0  0  1  0  0  0  0  0  0  0  0  0
   -3.6603    7.5144    0.6422 C   0  0  0  0  0  0  0  0  0  0  0  0
   -1.4111    7.0447    1.3311 C   0  0  0  0  0  0  0  0  0  0  0  0
   -0.5900    6.1431    1.6290 O   0  0  0  0  0  0  0  0  0  0  0  0
   -1.3428    8.2155    2.0606 O   0  0  0  0  0  0  0  0  0  0  0  0
   -2.5449   -1.6973    0.3651 H   0  0  0  0  0  0  0  0  0  0  0  0
   -3.5675   -1.2254   -1.0377 H   0  0  0  0  0  0  0  0  0  0  0  0
   -4.3062   -1.5255    0.5456 H   0  0  0  0  0  0  0  0  0  0  0  0
   -4.0480    0.6060    1.1895 H   0  0  0  0  0  0  0  0  0  0  0  0
   -1.5621    1.5808    0.5554 H   0  0  0  0  0  0  0  0  0  0  0  0
   -1.2928   -0.2257    0.7228 H   0  0  0  0  0  0  0  0  0  0  0  0
   -2.0610    0.7084    2.1038 H   0  0  0  0  0  0  0  0  0  0  0  0
   -4.6126    1.0913   -1.0832 H   0  0  0  0  0  0  0  0  0  0  0  0
   -2.9295    0.9275   -1.6208 H   0  0  0  0  0  0  0  0  0  0  0  0
   -4.0069    2.6219    1.5111 H   0  0  0  0  0  0  0  0  0  0  0  0
   -3.5151    4.9308    1.9575 H   0  0  0  0  0  0  0  0  0  0  0  0
   -1.9384    5.4209   -1.9775 H   0  0  0  0  0  0  0  0  0  0  0  0
   -2.4188    3.1198   -2.4488 H   0  0  0  0  0  0  0  0  0  0  0  0
   -1.9806    7.2217   -0.6960 H   0  0  0  0  0  0  0  0  0  0  0  0
   -4.4579    6.7699    0.7941 H   0  0  0  0  0  0  0  0  0  0  0  0
   -3.9542    8.2436   -0.1498 H   0  0  0  0  0  0  0  0  0  0  0  0
   -3.5030    8.1050    1.5656 H   0  0  0  0  0  0  0  0  0  0  0  0
   -2.2383    8.5937    2.3869 H   0  0  0  0  0  0  0  0  0  0  0  0
  1  2  1  0
  2  3  1  0
  2  4  1  0
  4  5  1  0
  5  6  2  0
  6  7  1  0
  7  8  2  0
  8  9  1  0
  9 10  2  0
  8 11  1  0
 11 12  1  0
 11 13  1  0
 13 14  2  0
 13 15  1  0
 10  5  1  0
  1 16  1  0
  1 17  1  0
  1 18  1  0
  2 19  1  0
  3 20  1  0
  3 21  1  0
  3 22  1  0
  4 23  1  0
  4 24  1  0
  6 25  1  0
  7 26  1  0
  9 27  1  0
 10 28  1  0
 11 29  1  6
 12 30  1  0
 12 31  1  0
 12 32  1  0
 15 33  1  0
M  END
>  <gfn_energy_norm>  (4) 
-0.971545

$$$$

     RDKit          3D

 33 33  0  0  0  0  0  0  0  0999 V2000
   -3.3997   -1.0951    0.0711 C   0  0  0  0  0  0  0  0  0  0  0  0
   -3.3005    0.3626    0.4063 C   0  0  0  0  0  0  0  0  0  0  0  0
   -4.5761    0.7968    1.0974 C   0  0  0  0  0  0  0  0  0  0  0  0
   -2.1045    0.7097    1.2478 C   0  0  0  0  0  0  0  0  0  0  0  0
   -2.2195    1.9844    1.9498 C   0  0  0  0  0  0  0  0  0  0  0  0
   -3.4001    2.3292    2.5662 C   0  0  0  0  0  0  0  0  0  0  0  0
   -3.5254    3.5306    3.2342 C   0  0  0  0  0  0  0  0  0  0  0  0
   -2.4860    4.4331    3.3154 C   0  0  0  0  0  0  0  0  0  0  0  0
   -1.3134    4.0652    2.6900 C   0  0  0  0  0  0  0  0  0  0  0  0
   -1.1768    2.8696    2.0208 C   0  0  0  0  0  0  0  0  0  0  0  0
   -2.5539    5.7157    4.0040 C   0  0  1  0  0  0  0  0  0  0  0  0
   -3.9648    6.2926    3.7942 C   0  0  0  0  0  0  0  0  0  0  0  0
   -2.3598    5.6477    5.4561 C   0  0  0  0  0  0  0  0  0  0  0  0
   -1.5088    6.4087    5.9783 O   0  0  0  0  0  0  0  0  0  0  0  0
   -3.0462    4.8035    6.3069 O   0  0  0  0  0  0  0  0  0  0  0  0
   -2.5449   -1.6973    0.3651 H   0  0  0  0  0  0  0  0  0  0  0  0
   -3.5675   -1.2254   -1.0377 H   0  0  0  0  0  0  0  0  0  0  0  0
   -4.3062   -1.5255    0.5456 H   0  0  0  0  0  0  0  0  0  0  0  0
   -3.2270    0.9465   -0.5347 H   0  0  0  0  0  0  0  0  0  0  0  0
   -4.5950    0.3224    2.0946 H   0  0  0  0  0  0  0  0  0  0  0  0
   -5.4142    0.4433    0.4580 H   0  0  0  0  0  0  0  0  0  0  0  0
   -4.5583    1.9105    1.1543 H   0  0  0  0  0  0  0  0  0  0  0  0
   -1.2120    0.6430    0.5817 H   0  0  0  0  0  0  0  0  0  0  0  0
   -1.9635   -0.0979    2.0082 H   0  0  0  0  0  0  0  0  0  0  0  0
   -4.2638    1.6477    2.5341 H   0  0  0  0  0  0  0  0  0  0  0  0
   -4.4758    3.7403    3.6952 H   0  0  0  0  0  0  0  0  0  0  0  0
   -0.4463    4.7578    2.7266 H   0  0  0  0  0  0  0  0  0  0  0  0
   -0.2083    2.6761    1.5614 H   0  0  0  0  0  0  0  0  0  0  0  0
   -1.8130    6.4105    3.5629 H   0  0  0  0  0  0  0  0  0  0  0  0
   -4.6273    5.9177    4.5906 H   0  0  0  0  0  0  0  0  0  0  0  0
   -4.3592    6.0024    2.7913 H   0  0  0  0  0  0  0  0  0  0  0  0
   -3.9336    7.3994    3.8076 H   0  0  0  0  0  0  0  0  0  0  0  0
   -3.9837    4.5229    6.0005 H   0  0  0  0  0  0  0  0  0  0  0  0
  1  2  1  0
  2  3  1  0
  2  4  1  0
  4  5  1  0
  5  6  2  0
  6  7  1  0
  7  8  2  0
  8  9  1  0
  9 10  2  0
  8 11  1  0
 11 12  1  0
 11 13  1  0
 13 14  2  0
 13 15  1  0
 10  5  1  0
  1 16  1  0
  1 17  1  0
  1 18  1  0
  2 19  1  0
  3 20  1  0
  3 21  1  0
  3 22  1  0
  4 23  1  0
  4 24  1  0
  6 25  1  0
  7 26  1  0
  9 27  1  0
 10 28  1  0
 11 29  1  6
 12 30  1  0
 12 31  1  0
 12 32  1  0
 15 33  1  0
M  END
>  <gfn_energy_norm>  (5) 
-0.904382

$$$$

     RDKit          3D

 33 33  0  0  0  0  0  0  0  0999 V2000
   -3.3997   -1.0951    0.0711 C   0  0  0  0  0  0  0  0  0  0  0  0
   -3.3005    0.3626    0.4063 C   0  0  0  0  0  0  0  0  0  0  0  0
   -4.5707    0.7937    1.1091 C   0  0  0  0  0  0  0  0  0  0  0  0
   -2.0977    0.7116    1.2372 C   0  0  0  0  0  0  0  0  0  0  0  0
   -2.0106   -0.0212    2.4968 C   0  0  0  0  0  0  0  0  0  0  0  0
   -2.1650    0.6407    3.6929 C   0  0  0  0  0  0  0  0  0  0  0  0
   -2.0856   -0.0374    4.8926 C   0  0  0  0  0  0  0  0  0  0  0  0
   -1.8504   -1.3949    4.9502 C   0  0  0  0  0  0  0  0  0  0  0  0
   -1.6992   -2.0359    3.7388 C   0  0  0  0  0  0  0  0  0  0  0  0
   -1.7764   -1.3701    2.5360 C   0  0  0  0  0  0  0  0  0  0  0  0
   -1.7554   -2.1679    6.1819 C   0  0  1  0  0  0  0  0  0  0  0  0
   -1.3321   -3.6001    5.8117 C   0  0  0  0  0  0  0  0  0  0  0  0
   -0.7518   -1.6868    7.1369 C   0  0  0  0  0  0  0  0  0  0  0  0
    0.1687   -0.9477    6.7101 O   0  0  0  0  0  0  0  0  0  0  0  0
   -0.7369   -1.9848    8.4855 O   0  0  0  0  0  0  0  0  0  0  0  0
   -2.5449   -1.6973    0.3651 H   0  0  0  0  0  0  0  0  0  0  0  0
   -3.5675   -1.2254   -1.0377 H   0  0  0  0  0  0  0  0  0  0  0  0
   -4.3062   -1.5255    0.5456 H   0  0  0  0  0  0  0  0  0  0  0  0
   -3.2367    0.9472   -0.5349 H   0  0  0  0  0  0  0  0  0  0  0  0
   -4.7277    0.1133    1.9647 H   0  0  0  0  0  0  0  0  0  0  0  0
   -5.3876    0.7072    0.3598 H   0  0  0  0  0  0  0  0  0  0  0  0
   -4.4292    1.8536    1.4263 H   0  0  0  0  0  0  0  0  0  0  0  0
   -2.1036    1.8202    1.3624 H   0  0  0  0  0  0  0  0  0  0  0  0
   -1.1801    0.4894    0.6381 H   0  0  0  0  0  0  0  0  0  0  0  0
   -2.3547    1.7248    3.7079 H   0  0  0  0  0  0  0  0  0  0  0  0
   -2.2154    0.5391    5.7929 H   0  0  0  0  0  0  0  0  0  0  0  0
   -1.5080   -3.1297    3.7313 H   0  0  0  0  0  0  0  0  0  0  0  0
   -1.6424   -1.9705    1.6370 H   0  0  0  0  0  0  0  0  0  0  0  0
   -2.7476   -2.2026    6.6726 H   0  0  0  0  0  0  0  0  0  0  0  0
   -2.2299   -4.2361    5.7563 H   0  0  0  0  0  0  0  0  0  0  0  0
   -0.6162   -4.0025    6.5675 H   0  0  0  0  0  0  0  0  0  0  0  0
   -0.7961   -3.6044    4.8427 H   0  0  0  0  0  0  0  0  0  0  0  0
   -0.1583   -2.7849    8.7618 H   0  0  0  0  0  0  0  0  0  0  0  0
  1  2  1  0
  2  3  1  0
  2  4  1  0
  4  5  1  0
  5  6  2  0
  6  7  1  0
  7  8  2  0
  8  9  1  0
  9 10  2  0
  8 11  1  0
 11 12  1  0
 11 13  1  0
 13 14  2  0
 13 15  1  0
 10  5  1  0
  1 16  1  0
  1 17  1  0
  1 18  1  0
  2 19  1  0
  3 20  1  0
  3 21  1  0
  3 22  1  0
  4 23  1  0
  4 24  1  0
  6 25  1  0
  7 26  1  0
  9 27  1  0
 10 28  1  0
 11 29  1  1
 12 30  1  0
 12 31  1  0
 12 32  1  0
 15 33  1  0
M  END
>  <gfn_energy_norm>  (6) 
-0.898020

$$$$

     RDKit          3D

 33 33  0  0  0  0  0  0  0  0999 V2000
   -3.3997   -1.0951    0.0711 C   0  0  0  0  0  0  0  0  0  0  0  0
   -3.3005    0.3626    0.4063 C   0  0  0  0  0  0  0  0  0  0  0  0
   -3.2502    0.5193    1.9117 C   0  0  0  0  0  0  0  0  0  0  0  0
   -2.1266    1.0512   -0.2315 C   0  0  0  0  0  0  0  0  0  0  0  0
   -2.4909    2.1566   -1.1129 C   0  0  0  0  0  0  0  0  0  0  0  0
   -3.1103    3.2730   -0.6005 C   0  0  0  0  0  0  0  0  0  0  0  0
   -3.4612    4.3267   -1.4201 C   0  0  0  0  0  0  0  0  0  0  0  0
   -3.2112    4.3121   -2.7761 C   0  0  0  0  0  0  0  0  0  0  0  0
   -2.5898    3.1829   -3.2659 C   0  0  0  0  0  0  0  0  0  0  0  0
   -2.2351    2.1257   -2.4580 C   0  0  0  0  0  0  0  0  0  0  0  0
   -3.5561    5.3902   -3.6940 C   0  0  1  0  0  0  0  0  0  0  0  0
   -3.0344    5.0094   -5.0905 C   0  0  0  0  0  0  0  0  0  0  0  0
   -4.9943    5.6285   -3.8539 C   0  0  0  0  0  0  0  0  0  0  0  0
   -5.3919    6.1790   -4.9097 O   0  0  0  0  0  0  0  0  0  0  0  0
   -5.9595    5.2919   -2.9251 O   0  0  0  0  0  0  0  0  0  0  0  0
   -2.5449   -1.6973    0.3651 H   0  0  0  0  0  0  0  0  0  0  0  0
   -3.5675   -1.2254   -1.0377 H   0  0  0  0  0  0  0  0  0  0  0  0
   -4.3062   -1.5255    0.5456 H   0  0  0  0  0  0  0  0  0  0  0  0
   -4.2194    0.8779    0.0575 H   0  0  0  0  0  0  0  0  0  0  0  0
   -3.8591   -0.2893    2.3532 H   0  0  0  0  0  0  0  0  0  0  0  0
   -3.6741    1.5224    2.1361 H   0  0  0  0  0  0  0  0  0  0  0  0
   -2.1783    0.4610    2.2142 H   0  0  0  0  0  0  0  0  0  0  0  0
   -1.5215    0.2588   -0.7320 H   0  0  0  0  0  0  0  0  0  0  0  0
   -1.4704    1.4518    0.5804 H   0  0  0  0  0  0  0  0  0  0  0  0
   -3.3347    3.3400    0.4749 H   0  0  0  0  0  0  0  0  0  0  0  0
   -3.9432    5.1709   -0.9567 H   0  0  0  0  0  0  0  0  0  0  0  0
   -2.3665    3.1223   -4.3519 H   0  0  0  0  0  0  0  0  0  0  0  0
   -1.7488    1.2816   -2.9454 H   0  0  0  0  0  0  0  0  0  0  0  0
   -3.0594    6.3248   -3.3681 H   0  0  0  0  0  0  0  0  0  0  0  0
   -2.9989    3.9114   -5.1727 H   0  0  0  0  0  0  0  0  0  0  0  0
   -2.0211    5.4453   -5.2601 H   0  0  0  0  0  0  0  0  0  0  0  0
   -3.6905    5.4338   -5.8751 H   0  0  0  0  0  0  0  0  0  0  0  0
   -6.3114    4.3300   -2.9721 H   0  0  0  0  0  0  0  0  0  0  0  0
  1  2  1  0
  2  3  1  0
  2  4  1  0
  4  5  1  0
  5  6  2  0
  6  7  1  0
  7  8  2  0
  8  9  1  0
  9 10  2  0
  8 11  1  0
 11 12  1  0
 11 13  1  0
 13 14  2  0
 13 15  1  0
 10  5  1  0
  1 16  1  0
  1 17  1  0
  1 18  1  0
  2 19  1  0
  3 20  1  0
  3 21  1  0
  3 22  1  0
  4 23  1  0
  4 24  1  0
  6 25  1  0
  7 26  1  0
  9 27  1  0
 10 28  1  0
 11 29  1  1
 12 30  1  0
 12 31  1  0
 12 32  1  0
 15 33  1  0
M  END
>  <gfn_energy_norm>  (7) 
-0.879169

$$$$

     RDKit          3D

 33 33  0  0  0  0  0  0  0  0999 V2000
   -3.3997   -1.0951    0.0711 C   0  0  0  0  0  0  0  0  0  0  0  0
   -3.3005    0.3626    0.4063 C   0  0  0  0  0  0  0  0  0  0  0  0
   -4.5953    0.8083    1.0529 C   0  0  0  0  0  0  0  0  0  0  0  0
   -2.1310    0.7024    1.2871 C   0  0  0  0  0  0  0  0  0  0  0  0
   -2.5019    1.1125    2.6382 C   0  0  0  0  0  0  0  0  0  0  0  0
   -2.6680    2.4458    2.9340 C   0  0  0  0  0  0  0  0  0  0  0  0
   -3.0185    2.8503    4.2063 C   0  0  0  0  0  0  0  0  0  0  0  0
   -3.2170    1.9487    5.2307 C   0  0  0  0  0  0  0  0  0  0  0  0
   -3.0448    0.6189    4.9097 C   0  0  0  0  0  0  0  0  0  0  0  0
   -2.6952    0.2036    3.6442 C   0  0  0  0  0  0  0  0  0  0  0  0
   -3.5875    2.3106    6.5929 C   0  0  1  0  0  0  0  0  0  0  0  0
   -4.8585    3.1751    6.5251 C   0  0  0  0  0  0  0  0  0  0  0  0
   -3.9181    1.1782    7.4642 C   0  0  0  0  0  0  0  0  0  0  0  0
   -5.1290    0.9018    7.6461 O   0  0  0  0  0  0  0  0  0  0  0  0
   -2.9932    0.3807    8.1094 O   0  0  0  0  0  0  0  0  0  0  0  0
   -2.5449   -1.6973    0.3651 H   0  0  0  0  0  0  0  0  0  0  0  0
   -3.5675   -1.2254   -1.0377 H   0  0  0  0  0  0  0  0  0  0  0  0
   -4.3062   -1.5255    0.5456 H   0  0  0  0  0  0  0  0  0  0  0  0
   -3.1907    0.9436   -0.5329 H   0  0  0  0  0  0  0  0  0  0  0  0
   -4.5630    1.9085    1.1440 H   0  0  0  0  0  0  0  0  0  0  0  0
   -4.6342    0.3144    2.0482 H   0  0  0  0  0  0  0  0  0  0  0  0
   -5.4285    0.4579    0.3994 H   0  0  0  0  0  0  0  0  0  0  0  0
   -1.5244    1.4611    0.7383 H   0  0  0  0  0  0  0  0  0  0  0  0
   -1.4739   -0.1992    1.3623 H   0  0  0  0  0  0  0  0  0  0  0  0
   -2.5226    3.2103    2.1556 H   0  0  0  0  0  0  0  0  0  0  0  0
   -3.1328    3.9082    4.3721 H   0  0  0  0  0  0  0  0  0  0  0  0
   -3.1932   -0.1468    5.7000 H   0  0  0  0  0  0  0  0  0  0  0  0
   -2.5846   -0.8700    3.4968 H   0  0  0  0  0  0  0  0  0  0  0  0
   -2.7732    2.9053    7.0506 H   0  0  0  0  0  0  0  0  0  0  0  0
   -5.0921    3.3866    5.4695 H   0  0  0  0  0  0  0  0  0  0  0  0
   -4.7130    4.1267    7.0897 H   0  0  0  0  0  0  0  0  0  0  0  0
   -5.7055    2.6522    7.0102 H   0  0  0  0  0  0  0  0  0  0  0  0
   -3.3009   -0.0381    8.9933 H   0  0  0  0  0  0  0  0  0  0  0  0
  1  2  1  0
  2  3  1  0
  2  4  1  0
  4  5  1  0
  5  6  2  0
  6  7  1  0
  7  8  2  0
  8  9  1  0
  9 10  2  0
  8 11  1  0
 11 12  1  0
 11 13  1  0
 13 14  2  0
 13 15  1  0
 10  5  1  0
  1 16  1  0
  1 17  1  0
  1 18  1  0
  2 19  1  0
  3 20  1  0
  3 21  1  0
  3 22  1  0
  4 23  1  0
  4 24  1  0
  6 25  1  0
  7 26  1  0
  9 27  1  0
 10 28  1  0
 11 29  1  1
 12 30  1  0
 12 31  1  0
 12 32  1  0
 15 33  1  0
M  END
>  <gfn_energy_norm>  (8) 
-0.866492

$$$$

     RDKit          3D

 33 33  0  0  0  0  0  0  0  0999 V2000
   -3.3997   -1.0951    0.0711 C   0  0  0  0  0  0  0  0  0  0  0  0
   -3.3005    0.3626    0.4063 C   0  0  0  0  0  0  0  0  0  0  0  0
   -3.5466    0.5446    1.8894 C   0  0  0  0  0  0  0  0  0  0  0  0
   -1.9908    0.9860    0.0122 C   0  0  0  0  0  0  0  0  0  0  0  0
   -0.9358    0.0206   -0.2815 C   0  0  0  0  0  0  0  0  0  0  0  0
   -1.2561   -1.2859   -0.5698 C   0  0  0  0  0  0  0  0  0  0  0  0
   -0.2707   -2.2111   -0.8497 C   0  0  0  0  0  0  0  0  0  0  0  0
    1.0667   -1.8752   -0.8539 C   0  0  0  0  0  0  0  0  0  0  0  0
    1.3625   -0.5604   -0.5621 C   0  0  0  0  0  0  0  0  0  0  0  0
    0.3881    0.3712   -0.2814 C   0  0  0  0  0  0  0  0  0  0  0  0
    2.1532   -2.8030   -1.1407 C   0  0  1  0  0  0  0  0  0  0  0  0
    1.6071   -3.9001   -2.0711 C   0  0  0  0  0  0  0  0  0  0  0  0
    3.2984   -2.2146   -1.8430 C   0  0  0  0  0  0  0  0  0  0  0  0
    4.1123   -2.9875   -2.4050 O   0  0  0  0  0  0  0  0  0  0  0  0
    3.5575   -0.8611   -1.9374 O   0  0  0  0  0  0  0  0  0  0  0  0
   -2.5449   -1.6973    0.3651 H   0  0  0  0  0  0  0  0  0  0  0  0
   -3.5675   -1.2254   -1.0377 H   0  0  0  0  0  0  0  0  0  0  0  0
   -4.3062   -1.5255    0.5456 H   0  0  0  0  0  0  0  0  0  0  0  0
   -4.1048    0.9121   -0.1254 H   0  0  0  0  0  0  0  0  0  0  0  0
   -4.6394    0.5570    2.0486 H   0  0  0  0  0  0  0  0  0  0  0  0
   -3.0797    1.5147    2.1673 H   0  0  0  0  0  0  0  0  0  0  0  0
   -3.0479   -0.3042    2.4135 H   0  0  0  0  0  0  0  0  0  0  0  0
   -1.7244    1.7111    0.8171 H   0  0  0  0  0  0  0  0  0  0  0  0
   -2.1590    1.6100   -0.9002 H   0  0  0  0  0  0  0  0  0  0  0  0
   -2.3075   -1.6111   -0.5809 H   0  0  0  0  0  0  0  0  0  0  0  0
   -0.5879   -3.2169   -1.0672 H   0  0  0  0  0  0  0  0  0  0  0  0
    2.4254   -0.2395   -0.5528 H   0  0  0  0  0  0  0  0  0  0  0  0
    0.7291    1.3827   -0.0640 H   0  0  0  0  0  0  0  0  0  0  0  0
    2.4970   -3.2708   -0.1977 H   0  0  0  0  0  0  0  0  0  0  0  0
    0.5286   -3.7359   -2.2242 H   0  0  0  0  0  0  0  0  0  0  0  0
    1.7884   -4.9097   -1.6313 H   0  0  0  0  0  0  0  0  0  0  0  0
    2.1414   -3.8831   -3.0409 H   0  0  0  0  0  0  0  0  0  0  0  0
    3.3300   -0.4224   -2.8358 H   0  0  0  0  0  0  0  0  0  0  0  0
  1  2  1  0
  2  3  1  0
  2  4  1  0
  4  5  1  0
  5  6  2  0
  6  7  1  0
  7  8  2  0
  8  9  1  0
  9 10  2  0
  8 11  1  0
 11 12  1  0
 11 13  1  0
 13 14  2  0
 13 15  1  0
 10  5  1  0
  1 16  1  0
  1 17  1  0
  1 18  1  0
  2 19  1  0
  3 20  1  0
  3 21  1  0
  3 22  1  0
  4 23  1  0
  4 24  1  0
  6 25  1  0
  7 26  1  0
  9 27  1  0
 10 28  1  0
 11 29  1  1
 12 30  1  0
 12 31  1  0
 12 32  1  0
 15 33  1  0
M  END
>  <gfn_energy_norm>  (9) 
-0.853263

$$$$

     RDKit          3D

 33 33  0  0  0  0  0  0  0  0999 V2000
   -3.3997   -1.0951    0.0711 C   0  0  0  0  0  0  0  0  0  0  0  0
   -3.3005    0.3626    0.4063 C   0  0  0  0  0  0  0  0  0  0  0  0
   -4.6119    0.8192    1.0106 C   0  0  0  0  0  0  0  0  0  0  0  0
   -2.1570    0.6959    1.3230 C   0  0  0  0  0  0  0  0  0  0  0  0
   -1.0064   -0.1924    1.1878 C   0  0  0  0  0  0  0  0  0  0  0  0
    0.0505   -0.0912    2.0626 C   0  0  0  0  0  0  0  0  0  0  0  0
    1.1459   -0.9234    1.9486 C   0  0  0  0  0  0  0  0  0  0  0  0
    1.2333   -1.8852    0.9643 C   0  0  0  0  0  0  0  0  0  0  0  0
    0.1620   -1.9672    0.1001 C   0  0  0  0  0  0  0  0  0  0  0  0
   -0.9358   -1.1425    0.2040 C   0  0  0  0  0  0  0  0  0  0  0  0
    2.3599   -2.7931    0.7905 C   0  0  1  0  0  0  0  0  0  0  0  0
    3.5628   -2.2072    1.5501 C   0  0  0  0  0  0  0  0  0  0  0  0
    2.1577   -4.1393    1.3358 C   0  0  0  0  0  0  0  0  0  0  0  0
    1.0834   -4.7326    1.0716 O   0  0  0  0  0  0  0  0  0  0  0  0
    3.0651   -4.8164    2.1270 O   0  0  0  0  0  0  0  0  0  0  0  0
   -2.5449   -1.6973    0.3651 H   0  0  0  0  0  0  0  0  0  0  0  0
   -3.5675   -1.2254   -1.0377 H   0  0  0  0  0  0  0  0  0  0  0  0
   -4.3062   -1.5255    0.5456 H   0  0  0  0  0  0  0  0  0  0  0  0
   -3.1567    0.9407   -0.5301 H   0  0  0  0  0  0  0  0  0  0  0  0
   -4.4406    0.9977    2.0869 H   0  0  0  0  0  0  0  0  0  0  0  0
   -5.3382   -0.0054    0.8412 H   0  0  0  0  0  0  0  0  0  0  0  0
   -4.9216    1.7431    0.4681 H   0  0  0  0  0  0  0  0  0  0  0  0
   -2.5743    0.7357    2.3568 H   0  0  0  0  0  0  0  0  0  0  0  0
   -1.8221    1.7396    1.1020 H   0  0  0  0  0  0  0  0  0  0  0  0
    0.0356    0.6585    2.8683 H   0  0  0  0  0  0  0  0  0  0  0  0
    1.9394   -0.7928    2.6648 H   0  0  0  0  0  0  0  0  0  0  0  0
    0.1840   -2.7259   -0.7104 H   0  0  0  0  0  0  0  0  0  0  0  0
   -1.7275   -1.2902   -0.5295 H   0  0  0  0  0  0  0  0  0  0  0  0
    2.6143   -2.8630   -0.2850 H   0  0  0  0  0  0  0  0  0  0  0  0
    4.4925   -2.5674    1.0815 H   0  0  0  0  0  0  0  0  0  0  0  0
    3.5279   -2.5057    2.6249 H   0  0  0  0  0  0  0  0  0  0  0  0
    3.5262   -1.1006    1.5336 H   0  0  0  0  0  0  0  0  0  0  0  0
    2.9216   -5.8284    2.2088 H   0  0  0  0  0  0  0  0  0  0  0  0
  1  2  1  0
  2  3  1  0
  2  4  1  0
  4  5  1  0
  5  6  2  0
  6  7  1  0
  7  8  2  0
  8  9  1  0
  9 10  2  0
  8 11  1  0
 11 12  1  0
 11 13  1  0
 13 14  2  0
 13 15  1  0
 10  5  1  0
  1 16  1  0
  1 17  1  0
  1 18  1  0
  2 19  1  0
  3 20  1  0
  3 21  1  0
  3 22  1  0
  4 23  1  0
  4 24  1  0
  6 25  1  0
  7 26  1  0
  9 27  1  0
 10 28  1  0
 11 29  1  6
 12 30  1  0
 12 31  1  0
 12 32  1  0
 15 33  1  0
M  END
>  <gfn_energy_norm>  (10) 
-0.832855

$$$$

     RDKit          3D

 33 33  0  0  0  0  0  0  0  0999 V2000
   -3.3997   -1.0951    0.0711 C   0  0  0  0  0  0  0  0  0  0  0  0
   -3.3005    0.3626    0.4063 C   0  0  0  0  0  0  0  0  0  0  0  0
   -3.3861    0.5292    1.9091 C   0  0  0  0  0  0  0  0  0  0  0  0
   -2.0581    1.0218   -0.1239 C   0  0  0  0  0  0  0  0  0  0  0  0
   -1.9575    1.0197   -1.5803 C   0  0  0  0  0  0  0  0  0  0  0  0
   -2.8548    1.7389   -2.3354 C   0  0  0  0  0  0  0  0  0  0  0  0
   -2.7736    1.7475   -3.7134 C   0  0  0  0  0  0  0  0  0  0  0  0
   -1.8009    1.0441   -4.3921 C   0  0  0  0  0  0  0  0  0  0  0  0
   -0.9137    0.3313   -3.6137 C   0  0  0  0  0  0  0  0  0  0  0  0
   -0.9849    0.3153   -2.2387 C   0  0  0  0  0  0  0  0  0  0  0  0
   -1.6613    1.0121   -5.8424 C   0  0  1  0  0  0  0  0  0  0  0  0
   -2.1498    2.3621   -6.3959 C   0  0  0  0  0  0  0  0  0  0  0  0
   -0.2862    0.8534   -6.3269 C   0  0  0  0  0  0  0  0  0  0  0  0
    0.1088    1.6051   -7.2514 O   0  0  0  0  0  0  0  0  0  0  0  0
    0.6214   -0.0680   -5.8422 O   0  0  0  0  0  0  0  0  0  0  0  0
   -2.5449   -1.6973    0.3651 H   0  0  0  0  0  0  0  0  0  0  0  0
   -3.5675   -1.2254   -1.0377 H   0  0  0  0  0  0  0  0  0  0  0  0
   -4.3062   -1.5255    0.5456 H   0  0  0  0  0  0  0  0  0  0  0  0
   -4.1719    0.8945   -0.0288 H   0  0  0  0  0  0  0  0  0  0  0  0
   -2.3547    0.5945    2.2983 H   0  0  0  0  0  0  0  0  0  0  0  0
   -3.9145   -0.3702    2.2938 H   0  0  0  0  0  0  0  0  0  0  0  0
   -3.9765    1.4548    2.1056 H   0  0  0  0  0  0  0  0  0  0  0  0
   -1.1932    0.5361    0.3865 H   0  0  0  0  0  0  0  0  0  0  0  0
   -2.0466    2.0835    0.2268 H   0  0  0  0  0  0  0  0  0  0  0  0
   -3.6526    2.3194   -1.8476 H   0  0  0  0  0  0  0  0  0  0  0  0
   -3.5061    2.3304   -4.2456 H   0  0  0  0  0  0  0  0  0  0  0  0
   -0.1114   -0.2519   -4.1128 H   0  0  0  0  0  0  0  0  0  0  0  0
   -0.2353   -0.2799   -1.7187 H   0  0  0  0  0  0  0  0  0  0  0  0
   -2.2957    0.2041   -6.2559 H   0  0  0  0  0  0  0  0  0  0  0  0
   -2.1851    2.3068   -7.4956 H   0  0  0  0  0  0  0  0  0  0  0  0
   -1.4712    3.1856   -6.0693 H   0  0  0  0  0  0  0  0  0  0  0  0
   -3.1509    2.6047   -5.9896 H   0  0  0  0  0  0  0  0  0  0  0  0
    1.1527    0.2187   -5.0134 H   0  0  0  0  0  0  0  0  0  0  0  0
  1  2  1  0
  2  3  1  0
  2  4  1  0
  4  5  1  0
  5  6  2  0
  6  7  1  0
  7  8  2  0
  8  9  1  0
  9 10  2  0
  8 11  1  0
 11 12  1  0
 11 13  1  0
 13 14  2  0
 13 15  1  0
 10  5  1  0
  1 16  1  0
  1 17  1  0
  1 18  1  0
  2 19  1  0
  3 20  1  0
  3 21  1  0
  3 22  1  0
  4 23  1  0
  4 24  1  0
  6 25  1  0
  7 26  1  0
  9 27  1  0
 10 28  1  0
 11 29  1  6
 12 30  1  0
 12 31  1  0
 12 32  1  0
 15 33  1  0
M  END
>  <gfn_energy_norm>  (11) 
-0.830805

$$$$

     RDKit          3D

 33 33  0  0  0  0  0  0  0  0999 V2000
   -3.3997   -1.0951    0.0711 C   0  0  0  0  0  0  0  0  0  0  0  0
   -3.3005    0.3626    0.4063 C   0  0  0  0  0  0  0  0  0  0  0  0
   -3.2552    0.5196    1.9118 C   0  0  0  0  0  0  0  0  0  0  0  0
   -2.1239    1.0502   -0.2278 C   0  0  0  0  0  0  0  0  0  0  0  0
   -0.8463    0.3844    0.0084 C   0  0  0  0  0  0  0  0  0  0  0  0
   -0.7130   -0.9620   -0.2405 C   0  0  0  0  0  0  0  0  0  0  0  0
    0.4880   -1.6066   -0.0226 C   0  0  0  0  0  0  0  0  0  0  0  0
    1.5993   -0.9406    0.4496 C   0  0  0  0  0  0  0  0  0  0  0  0
    1.4409    0.4076    0.6915 C   0  0  0  0  0  0  0  0  0  0  0  0
    0.2479    1.0612    0.4778 C   0  0  0  0  0  0  0  0  0  0  0  0
    2.8935   -1.5620    0.7002 C   0  0  1  0  0  0  0  0  0  0  0  0
    3.7312   -0.5883    1.5473 C   0  0  0  0  0  0  0  0  0  0  0  0
    2.8401   -2.8137    1.4625 C   0  0  0  0  0  0  0  0  0  0  0  0
    2.2796   -3.8065    0.9368 O   0  0  0  0  0  0  0  0  0  0  0  0
    3.3631   -2.9914    2.7284 O   0  0  0  0  0  0  0  0  0  0  0  0
   -2.5449   -1.6973    0.3651 H   0  0  0  0  0  0  0  0  0  0  0  0
   -3.5675   -1.2254   -1.0377 H   0  0  0  0  0  0  0  0  0  0  0  0
   -4.3062   -1.5255    0.5456 H   0  0  0  0  0  0  0  0  0  0  0  0
   -4.2178    0.8785    0.0542 H   0  0  0  0  0  0  0  0  0  0  0  0
   -3.4013    1.5899    2.1416 H   0  0  0  0  0  0  0  0  0  0  0  0
   -2.2523    0.1633    2.2335 H   0  0  0  0  0  0  0  0  0  0  0  0
   -4.0628   -0.1225    2.3352 H   0  0  0  0  0  0  0  0  0  0  0  0
   -2.1475    2.1112    0.1162 H   0  0  0  0  0  0  0  0  0  0  0  0
   -2.2966    1.0962   -1.3316 H   0  0  0  0  0  0  0  0  0  0  0  0
   -1.5667   -1.5448   -0.6185 H   0  0  0  0  0  0  0  0  0  0  0  0
    0.5262   -2.6612   -0.2372 H   0  0  0  0  0  0  0  0  0  0  0  0
    2.3065    0.9891    1.0727 H   0  0  0  0  0  0  0  0  0  0  0  0
    0.2295    2.1273    0.7007 H   0  0  0  0  0  0  0  0  0  0  0  0
    3.4113   -1.7363   -0.2631 H   0  0  0  0  0  0  0  0  0  0  0  0
    4.7739   -0.9426    1.5742 H   0  0  0  0  0  0  0  0  0  0  0  0
    3.3177   -0.5167    2.5814 H   0  0  0  0  0  0  0  0  0  0  0  0
    3.6816    0.4326    1.1213 H   0  0  0  0  0  0  0  0  0  0  0  0
    2.9790   -2.3862    3.4616 H   0  0  0  0  0  0  0  0  0  0  0  0
  1  2  1  0
  2  3  1  0
  2  4  1  0
  4  5  1  0
  5  6  2  0
  6  7  1  0
  7  8  2  0
  8  9  1  0
  9 10  2  0
  8 11  1  0
 11 12  1  0
 11 13  1  0
 13 14  2  0
 13 15  1  0
 10  5  1  0
  1 16  1  0
  1 17  1  0
  1 18  1  0
  2 19  1  0
  3 20  1  0
  3 21  1  0
  3 22  1  0
  4 23  1  0
  4 24  1  0
  6 25  1  0
  7 26  1  0
  9 27  1  0
 10 28  1  0
 11 29  1  6
 12 30  1  0
 12 31  1  0
 12 32  1  0
 15 33  1  0
M  END
>  <gfn_energy_norm>  (12) 
-0.815594

$$$$

     RDKit          3D

 33 33  0  0  0  0  0  0  0  0999 V2000
   -3.3997   -1.0951    0.0711 C   0  0  0  0  0  0  0  0  0  0  0  0
   -3.3005    0.3626    0.4063 C   0  0  0  0  0  0  0  0  0  0  0  0
   -1.8434    0.7750    0.3829 C   0  0  0  0  0  0  0  0  0  0  0  0
   -4.1100    1.2478   -0.4993 C   0  0  0  0  0  0  0  0  0  0  0  0
   -3.5806    2.6012   -0.6387 C   0  0  0  0  0  0  0  0  0  0  0  0
   -3.1479    3.0504   -1.8649 C   0  0  0  0  0  0  0  0  0  0  0  0
   -2.6447    4.3271   -2.0138 C   0  0  0  0  0  0  0  0  0  0  0  0
   -2.5523    5.2041   -0.9536 C   0  0  0  0  0  0  0  0  0  0  0  0
   -2.9921    4.7310    0.2645 C   0  0  0  0  0  0  0  0  0  0  0  0
   -3.4958    3.4595    0.4251 C   0  0  0  0  0  0  0  0  0  0  0  0
   -2.0317    6.5622   -1.0446 C   0  0  1  0  0  0  0  0  0  0  0  0
   -3.2252    7.5167   -1.2230 C   0  0  0  0  0  0  0  0  0  0  0  0
   -1.3176    7.0307    0.1476 C   0  0  0  0  0  0  0  0  0  0  0  0
   -0.4243    6.2944    0.6332 O   0  0  0  0  0  0  0  0  0  0  0  0
   -1.5511    8.2321    0.7879 O   0  0  0  0  0  0  0  0  0  0  0  0
   -2.5449   -1.6973    0.3651 H   0  0  0  0  0  0  0  0  0  0  0  0
   -3.5675   -1.2254   -1.0377 H   0  0  0  0  0  0  0  0  0  0  0  0
   -4.3062   -1.5255    0.5456 H   0  0  0  0  0  0  0  0  0  0  0  0
   -3.6656    0.5219    1.4421 H   0  0  0  0  0  0  0  0  0  0  0  0
   -1.2707   -0.0448   -0.0856 H   0  0  0  0  0  0  0  0  0  0  0  0
   -1.5456    0.9313    1.4427 H   0  0  0  0  0  0  0  0  0  0  0  0
   -1.7788    1.7265   -0.1955 H   0  0  0  0  0  0  0  0  0  0  0  0
   -5.1613    1.2132   -0.1276 H   0  0  0  0  0  0  0  0  0  0  0  0
   -4.1423    0.7778   -1.5133 H   0  0  0  0  0  0  0  0  0  0  0  0
   -3.1978    2.3938   -2.7469 H   0  0  0  0  0  0  0  0  0  0  0  0
   -2.3230    4.6171   -2.9997 H   0  0  0  0  0  0  0  0  0  0  0  0
   -2.9387    5.3989    1.1499 H   0  0  0  0  0  0  0  0  0  0  0  0
   -3.8158    3.1853    1.4296 H   0  0  0  0  0  0  0  0  0  0  0  0
   -1.3707    6.6450   -1.9292 H   0  0  0  0  0  0  0  0  0  0  0  0
   -3.9211    7.0864   -1.9606 H   0  0  0  0  0  0  0  0  0  0  0  0
   -2.8738    8.5212   -1.5594 H   0  0  0  0  0  0  0  0  0  0  0  0
   -3.7389    7.6753   -0.2549 H   0  0  0  0  0  0  0  0  0  0  0  0
   -2.2893    8.2251    1.4996 H   0  0  0  0  0  0  0  0  0  0  0  0
  1  2  1  0
  2  3  1  0
  2  4  1  0
  4  5  1  0
  5  6  2  0
  6  7  1  0
  7  8  2  0
  8  9  1  0
  9 10  2  0
  8 11  1  0
 11 12  1  0
 11 13  1  0
 13 14  2  0
 13 15  1  0
 10  5  1  0
  1 16  1  0
  1 17  1  0
  1 18  1  0
  2 19  1  0
  3 20  1  0
  3 21  1  0
  3 22  1  0
  4 23  1  0
  4 24  1  0
  6 25  1  0
  7 26  1  0
  9 27  1  0
 10 28  1  0
 11 29  1  6
 12 30  1  0
 12 31  1  0
 12 32  1  0
 15 33  1  0
M  END
>  <gfn_energy_norm>  (13) 
-0.806163

$$$$

     RDKit          3D

 33 33  0  0  0  0  0  0  0  0999 V2000
   -3.3997   -1.0951    0.0711 C   0  0  0  0  0  0  0  0  0  0  0  0
   -3.3005    0.3626    0.4063 C   0  0  0  0  0  0  0  0  0  0  0  0
   -3.5578    1.1743   -0.8462 C   0  0  0  0  0  0  0  0  0  0  0  0
   -4.2257    0.7939    1.5093 C   0  0  0  0  0  0  0  0  0  0  0  0
   -4.5678    2.2128    1.4795 C   0  0  0  0  0  0  0  0  0  0  0  0
   -4.2064    2.9877    0.4018 C   0  0  0  0  0  0  0  0  0  0  0  0
   -4.5222    4.3308    0.3579 C   0  0  0  0  0  0  0  0  0  0  0  0
   -5.2070    4.9539    1.3799 C   0  0  0  0  0  0  0  0  0  0  0  0
   -5.5582    4.1567    2.4487 C   0  0  0  0  0  0  0  0  0  0  0  0
   -5.2487    2.8160    2.5034 C   0  0  0  0  0  0  0  0  0  0  0  0
   -5.5700    6.3652    1.3943 C   0  0  1  0  0  0  0  0  0  0  0  0
   -7.0796    6.4696    1.1155 C   0  0  0  0  0  0  0  0  0  0  0  0
   -5.3501    7.0461    2.6744 C   0  0  0  0  0  0  0  0  0  0  0  0
   -5.0395    6.3506    3.6722 O   0  0  0  0  0  0  0  0  0  0  0  0
   -5.4584    8.4086    2.8740 O   0  0  0  0  0  0  0  0  0  0  0  0
   -2.5449   -1.6973    0.3651 H   0  0  0  0  0  0  0  0  0  0  0  0
   -3.5675   -1.2254   -1.0377 H   0  0  0  0  0  0  0  0  0  0  0  0
   -4.3062   -1.5255    0.5456 H   0  0  0  0  0  0  0  0  0  0  0  0
   -2.2642    0.5897    0.7322 H   0  0  0  0  0  0  0  0  0  0  0  0
   -4.6493    1.3174   -0.9343 H   0  0  0  0  0  0  0  0  0  0  0  0
   -3.1514    0.5797   -1.6932 H   0  0  0  0  0  0  0  0  0  0  0  0
   -3.0081    2.1382   -0.7337 H   0  0  0  0  0  0  0  0  0  0  0  0
   -3.7594    0.4647    2.4678 H   0  0  0  0  0  0  0  0  0  0  0  0
   -5.1716    0.2034    1.4258 H   0  0  0  0  0  0  0  0  0  0  0  0
   -3.6582    2.5440   -0.4432 H   0  0  0  0  0  0  0  0  0  0  0  0
   -4.2106    4.8811   -0.5137 H   0  0  0  0  0  0  0  0  0  0  0  0
   -6.1111    4.6112    3.2975 H   0  0  0  0  0  0  0  0  0  0  0  0
   -5.5723    2.2770    3.3930 H   0  0  0  0  0  0  0  0  0  0  0  0
   -5.0197    6.8954    0.5928 H   0  0  0  0  0  0  0  0  0  0  0  0
   -7.5910    6.8036    2.0323 H   0  0  0  0  0  0  0  0  0  0  0  0
   -7.4833    5.4841    0.7818 H   0  0  0  0  0  0  0  0  0  0  0  0
   -7.2696    7.1797    0.2874 H   0  0  0  0  0  0  0  0  0  0  0  0
   -5.5827    8.9772    2.0298 H   0  0  0  0  0  0  0  0  0  0  0  0
  1  2  1  0
  2  3  1  0
  2  4  1  0
  4  5  1  0
  5  6  2  0
  6  7  1  0
  7  8  2  0
  8  9  1  0
  9 10  2  0
  8 11  1  0
 11 12  1  0
 11 13  1  0
 13 14  2  0
 13 15  1  0
 10  5  1  0
  1 16  1  0
  1 17  1  0
  1 18  1  0
  2 19  1  0
  3 20  1  0
  3 21  1  0
  3 22  1  0
  4 23  1  0
  4 24  1  0
  6 25  1  0
  7 26  1  0
  9 27  1  0
 10 28  1  0
 11 29  1  6
 12 30  1  0
 12 31  1  0
 12 32  1  0
 15 33  1  0
M  END
>  <gfn_energy_norm>  (14) 
-0.785890

$$$$

     RDKit          3D

 33 33  0  0  0  0  0  0  0  0999 V2000
   -3.3997   -1.0951    0.0711 C   0  0  0  0  0  0  0  0  0  0  0  0
   -3.3005    0.3626    0.4063 C   0  0  0  0  0  0  0  0  0  0  0  0
   -3.5563    0.5457    1.8877 C   0  0  0  0  0  0  0  0  0  0  0  0
   -1.9872    0.9838    0.0207 C   0  0  0  0  0  0  0  0  0  0  0  0
   -2.1134    2.1703   -0.8204 C   0  0  0  0  0  0  0  0  0  0  0  0
   -0.9989    2.9096   -1.1429 C   0  0  0  0  0  0  0  0  0  0  0  0
   -1.1009    4.0340   -1.9371 C   0  0  0  0  0  0  0  0  0  0  0  0
   -2.3101    4.4660   -2.4399 C   0  0  0  0  0  0  0  0  0  0  0  0
   -3.4120    3.7088   -2.1029 C   0  0  0  0  0  0  0  0  0  0  0  0
   -3.3225    2.5854   -1.3116 C   0  0  0  0  0  0  0  0  0  0  0  0
   -2.4846    5.6423   -3.2822 C   0  0  1  0  0  0  0  0  0  0  0  0
   -1.1098    6.0197   -3.8608 C   0  0  0  0  0  0  0  0  0  0  0  0
   -3.3670    5.4489   -4.4375 C   0  0  0  0  0  0  0  0  0  0  0  0
   -4.5486    5.8657   -4.3595 O   0  0  0  0  0  0  0  0  0  0  0  0
   -2.9988    4.8375   -5.6200 O   0  0  0  0  0  0  0  0  0  0  0  0
   -2.5449   -1.6973    0.3651 H   0  0  0  0  0  0  0  0  0  0  0  0
   -3.5675   -1.2254   -1.0377 H   0  0  0  0  0  0  0  0  0  0  0  0
   -4.3062   -1.5255    0.5456 H   0  0  0  0  0  0  0  0  0  0  0  0
   -4.1004    0.9131   -0.1310 H   0  0  0  0  0  0  0  0  0  0  0  0
   -3.6799   -0.4574    2.3328 H   0  0  0  0  0  0  0  0  0  0  0  0
   -4.4855    1.1503    1.9722 H   0  0  0  0  0  0  0  0  0  0  0  0
   -2.6816    1.0952    2.3084 H   0  0  0  0  0  0  0  0  0  0  0  0
   -1.3697    0.1741   -0.4350 H   0  0  0  0  0  0  0  0  0  0  0  0
   -1.4471    1.2729    0.9561 H   0  0  0  0  0  0  0  0  0  0  0  0
   -0.0072    2.6121   -0.7697 H   0  0  0  0  0  0  0  0  0  0  0  0
   -0.1910    4.5682   -2.1524 H   0  0  0  0  0  0  0  0  0  0  0  0
   -4.4094    4.0150   -2.4831 H   0  0  0  0  0  0  0  0  0  0  0  0
   -4.2536    2.0591   -1.1053 H   0  0  0  0  0  0  0  0  0  0  0  0
   -2.8582    6.4839   -2.6670 H   0  0  0  0  0  0  0  0  0  0  0  0
   -1.2547    6.5213   -4.8308 H   0  0  0  0  0  0  0  0  0  0  0  0
   -0.4758    5.1096   -3.9842 H   0  0  0  0  0  0  0  0  0  0  0  0
   -0.5670    6.6840   -3.1604 H   0  0  0  0  0  0  0  0  0  0  0  0
   -2.1571    5.2079   -6.0735 H   0  0  0  0  0  0  0  0  0  0  0  0
  1  2  1  0
  2  3  1  0
  2  4  1  0
  4  5  1  0
  5  6  2  0
  6  7  1  0
  7  8  2  0
  8  9  1  0
  9 10  2  0
  8 11  1  0
 11 12  1  0
 11 13  1  0
 13 14  2  0
 13 15  1  0
 10  5  1  0
  1 16  1  0
  1 17  1  0
  1 18  1  0
  2 19  1  0
  3 20  1  0
  3 21  1  0
  3 22  1  0
  4 23  1  0
  4 24  1  0
  6 25  1  0
  7 26  1  0
  9 27  1  0
 10 28  1  0
 11 29  1  1
 12 30  1  0
 12 31  1  0
 12 32  1  0
 15 33  1  0
M  END
>  <gfn_energy_norm>  (15) 
-0.765755

$$$$

     RDKit          3D

 33 33  0  0  0  0  0  0  0  0999 V2000
   -3.3997   -1.0951    0.0711 C   0  0  0  0  0  0  0  0  0  0  0  0
   -3.3005    0.3626    0.4063 C   0  0  0  0  0  0  0  0  0  0  0  0
   -4.2757    0.6790    1.5209 C   0  0  0  0  0  0  0  0  0  0  0  0
   -1.9138    0.8036    0.7826 C   0  0  0  0  0  0  0  0  0  0  0  0
   -1.8766    1.9763    1.6513 C   0  0  0  0  0  0  0  0  0  0  0  0
   -2.5206    1.9559    2.8668 C   0  0  0  0  0  0  0  0  0  0  0  0
   -2.4951    3.0562    3.6999 C   0  0  0  0  0  0  0  0  0  0  0  0
   -1.8310    4.2156    3.3588 C   0  0  0  0  0  0  0  0  0  0  0  0
   -1.1935    4.2117    2.1361 C   0  0  0  0  0  0  0  0  0  0  0  0
   -1.2121    3.1202    1.2968 C   0  0  0  0  0  0  0  0  0  0  0  0
   -1.7665    5.4094    4.1920 C   0  0  1  0  0  0  0  0  0  0  0  0
   -3.0932    6.1719    4.0320 C   0  0  0  0  0  0  0  0  0  0  0  0
   -1.6218    5.1525    5.6286 C   0  0  0  0  0  0  0  0  0  0  0  0
   -2.4982    4.4585    6.1997 O   0  0  0  0  0  0  0  0  0  0  0  0
   -0.5859    5.6181    6.4147 O   0  0  0  0  0  0  0  0  0  0  0  0
   -2.5449   -1.6973    0.3651 H   0  0  0  0  0  0  0  0  0  0  0  0
   -3.5675   -1.2254   -1.0377 H   0  0  0  0  0  0  0  0  0  0  0  0
   -4.3062   -1.5255    0.5456 H   0  0  0  0  0  0  0  0  0  0  0  0
   -3.6123    0.9592   -0.4760 H   0  0  0  0  0  0  0  0  0  0  0  0
   -4.3609   -0.2199    2.1567 H   0  0  0  0  0  0  0  0  0  0  0  0
   -5.2416    0.9283    1.0299 H   0  0  0  0  0  0  0  0  0  0  0  0
   -3.8699    1.5577    2.0751 H   0  0  0  0  0  0  0  0  0  0  0  0
   -1.3474    0.9324   -0.1699 H   0  0  0  0  0  0  0  0  0  0  0  0
   -1.4079   -0.0412    1.3123 H   0  0  0  0  0  0  0  0  0  0  0  0
   -3.0668    1.0573    3.1916 H   0  0  0  0  0  0  0  0  0  0  0  0
   -3.0190    2.9755    4.6373 H   0  0  0  0  0  0  0  0  0  0  0  0
   -0.6444    5.1218    1.8151 H   0  0  0  0  0  0  0  0  0  0  0  0
   -0.6766    3.2215    0.3537 H   0  0  0  0  0  0  0  0  0  0  0  0
   -0.9370    6.0561    3.8456 H   0  0  0  0  0  0  0  0  0  0  0  0
   -3.1967    6.8891    4.8618 H   0  0  0  0  0  0  0  0  0  0  0  0
   -3.9530    5.4604    4.0232 H   0  0  0  0  0  0  0  0  0  0  0  0
   -3.1178    6.7011    3.0596 H   0  0  0  0  0  0  0  0  0  0  0  0
   -0.5623    5.2693    7.3786 H   0  0  0  0  0  0  0  0  0  0  0  0
  1  2  1  0
  2  3  1  0
  2  4  1  0
  4  5  1  0
  5  6  2  0
  6  7  1  0
  7  8  2  0
  8  9  1  0
  9 10  2  0
  8 11  1  0
 11 12  1  0
 11 13  1  0
 13 14  2  0
 13 15  1  0
 10  5  1  0
  1 16  1  0
  1 17  1  0
  1 18  1  0
  2 19  1  0
  3 20  1  0
  3 21  1  0
  3 22  1  0
  4 23  1  0
  4 24  1  0
  6 25  1  0
  7 26  1  0
  9 27  1  0
 10 28  1  0
 11 29  1  6
 12 30  1  0
 12 31  1  0
 12 32  1  0
 15 33  1  0
M  END
>  <gfn_energy_norm>  (16) 
-0.667536

$$$$

     RDKit          3D

 33 33  0  0  0  0  0  0  0  0999 V2000
   -3.3997   -1.0951    0.0711 C   0  0  0  0  0  0  0  0  0  0  0  0
   -3.3005    0.3626    0.4063 C   0  0  0  0  0  0  0  0  0  0  0  0
   -4.6969    0.9363    0.5264 C   0  0  0  0  0  0  0  0  0  0  0  0
   -2.5095    0.6441    1.6529 C   0  0  0  0  0  0  0  0  0  0  0  0
   -3.2352    0.3793    2.8916 C   0  0  0  0  0  0  0  0  0  0  0  0
   -3.2920   -0.8982    3.3989 C   0  0  0  0  0  0  0  0  0  0  0  0
   -3.9739   -1.1655    4.5690 C   0  0  0  0  0  0  0  0  0  0  0  0
   -4.6236   -0.1771    5.2779 C   0  0  0  0  0  0  0  0  0  0  0  0
   -4.5523    1.0945    4.7496 C   0  0  0  0  0  0  0  0  0  0  0  0
   -3.8752    1.3730    3.5834 C   0  0  0  0  0  0  0  0  0  0  0  0
   -5.3595   -0.3935    6.5170 C   0  0  1  0  0  0  0  0  0  0  0  0
   -4.8560    0.6274    7.5522 C   0  0  0  0  0  0  0  0  0  0  0  0
   -6.8079   -0.1852    6.4192 C   0  0  0  0  0  0  0  0  0  0  0  0
   -7.3952   -0.5717    5.3793 O   0  0  0  0  0  0  0  0  0  0  0  0
   -7.5885    0.4096    7.3912 O   0  0  0  0  0  0  0  0  0  0  0  0
   -2.5449   -1.6973    0.3651 H   0  0  0  0  0  0  0  0  0  0  0  0
   -3.5675   -1.2254   -1.0377 H   0  0  0  0  0  0  0  0  0  0  0  0
   -4.3062   -1.5255    0.5456 H   0  0  0  0  0  0  0  0  0  0  0  0
   -2.8030    0.8939   -0.4315 H   0  0  0  0  0  0  0  0  0  0  0  0
   -5.3951    0.0920    0.6656 H   0  0  0  0  0  0  0  0  0  0  0  0
   -4.8941    1.4806   -0.4228 H   0  0  0  0  0  0  0  0  0  0  0  0
   -4.6930    1.6355    1.3953 H   0  0  0  0  0  0  0  0  0  0  0  0
   -2.1353    1.6916    1.5670 H   0  0  0  0  0  0  0  0  0  0  0  0
   -1.5929    0.0037    1.6397 H   0  0  0  0  0  0  0  0  0  0  0  0
   -2.7918   -1.7271    2.8754 H   0  0  0  0  0  0  0  0  0  0  0  0
   -3.9803   -2.1862    4.9123 H   0  0  0  0  0  0  0  0  0  0  0  0
   -5.0593    1.9258    5.2832 H   0  0  0  0  0  0  0  0  0  0  0  0
   -3.8804    2.4109    3.2528 H   0  0  0  0  0  0  0  0  0  0  0  0
   -5.1563   -1.4152    6.8927 H   0  0  0  0  0  0  0  0  0  0  0  0
   -3.7676    0.5080    7.6732 H   0  0  0  0  0  0  0  0  0  0  0  0
   -5.3747    0.4797    8.5293 H   0  0  0  0  0  0  0  0  0  0  0  0
   -5.0970    1.6576    7.2251 H   0  0  0  0  0  0  0  0  0  0  0  0
   -8.5990    0.4094    7.2174 H   0  0  0  0  0  0  0  0  0  0  0  0
  1  2  1  0
  2  3  1  0
  2  4  1  0
  4  5  1  0
  5  6  2  0
  6  7  1  0
  7  8  2  0
  8  9  1  0
  9 10  2  0
  8 11  1  0
 11 12  1  0
 11 13  1  0
 13 14  2  0
 13 15  1  0
 10  5  1  0
  1 16  1  0
  1 17  1  0
  1 18  1  0
  2 19  1  0
  3 20  1  0
  3 21  1  0
  3 22  1  0
  4 23  1  0
  4 24  1  0
  6 25  1  0
  7 26  1  0
  9 27  1  0
 10 28  1  0
 11 29  1  1
 12 30  1  0
 12 31  1  0
 12 32  1  0
 15 33  1  0
M  END
>  <gfn_energy_norm>  (17) 
-0.661922

$$$$

     RDKit          3D

 33 33  0  0  0  0  0  0  0  0999 V2000
   -3.3997   -1.0951    0.0711 C   0  0  0  0  0  0  0  0  0  0  0  0
   -3.3005    0.3626    0.4063 C   0  0  0  0  0  0  0  0  0  0  0  0
   -4.6749    0.9884    0.2933 C   0  0  0  0  0  0  0  0  0  0  0  0
   -2.7118    0.6327    1.7625 C   0  0  0  0  0  0  0  0  0  0  0  0
   -3.6995    0.7226    2.8337 C   0  0  0  0  0  0  0  0  0  0  0  0
   -4.2754   -0.4197    3.3397 C   0  0  0  0  0  0  0  0  0  0  0  0
   -5.2108   -0.3521    4.3525 C   0  0  0  0  0  0  0  0  0  0  0  0
   -5.6091    0.8493    4.9000 C   0  0  0  0  0  0  0  0  0  0  0  0
   -5.0180    1.9796    4.3765 C   0  0  0  0  0  0  0  0  0  0  0  0
   -4.0838    1.9245    3.3663 C   0  0  0  0  0  0  0  0  0  0  0  0
   -6.5900    0.9882    5.9687 C   0  0  1  0  0  0  0  0  0  0  0  0
   -5.8711    1.5661    7.2003 C   0  0  0  0  0  0  0  0  0  0  0  0
   -7.6929    1.9102    5.6783 C   0  0  0  0  0  0  0  0  0  0  0  0
   -7.5856    2.6717    4.6862 O   0  0  0  0  0  0  0  0  0  0  0  0
   -8.8555    2.0099    6.4175 O   0  0  0  0  0  0  0  0  0  0  0  0
   -2.5449   -1.6973    0.3651 H   0  0  0  0  0  0  0  0  0  0  0  0
   -3.5675   -1.2254   -1.0377 H   0  0  0  0  0  0  0  0  0  0  0  0
   -4.3062   -1.5255    0.5456 H   0  0  0  0  0  0  0  0  0  0  0  0
   -2.6539    0.8636   -0.3438 H   0  0  0  0  0  0  0  0  0  0  0  0
   -5.1836    0.8572    1.2648 H   0  0  0  0  0  0  0  0  0  0  0  0
   -5.1999    0.4450   -0.5223 H   0  0  0  0  0  0  0  0  0  0  0  0
   -4.5283    2.0620    0.0292 H   0  0  0  0  0  0  0  0  0  0  0  0
   -2.0749    1.5431    1.6616 H   0  0  0  0  0  0  0  0  0  0  0  0
   -2.0019   -0.1954    2.0088 H   0  0  0  0  0  0  0  0  0  0  0  0
   -3.9958   -1.4068    2.9410 H   0  0  0  0  0  0  0  0  0  0  0  0
   -5.6234   -1.2826    4.7038 H   0  0  0  0  0  0  0  0  0  0  0  0
   -5.3049    2.9720    4.7835 H   0  0  0  0  0  0  0  0  0  0  0  0
   -3.6785    2.8761    3.0248 H   0  0  0  0  0  0  0  0  0  0  0  0
   -6.9980   -0.0086    6.2263 H   0  0  0  0  0  0  0  0  0  0  0  0
   -4.8768    1.9303    6.8966 H   0  0  0  0  0  0  0  0  0  0  0  0
   -5.7748    0.7889    7.9954 H   0  0  0  0  0  0  0  0  0  0  0  0
   -6.4655    2.3898    7.6412 H   0  0  0  0  0  0  0  0  0  0  0  0
   -9.5883    2.6085    6.0226 H   0  0  0  0  0  0  0  0  0  0  0  0
  1  2  1  0
  2  3  1  0
  2  4  1  0
  4  5  1  0
  5  6  2  0
  6  7  1  0
  7  8  2  0
  8  9  1  0
  9 10  2  0
  8 11  1  0
 11 12  1  0
 11 13  1  0
 13 14  2  0
 13 15  1  0
 10  5  1  0
  1 16  1  0
  1 17  1  0
  1 18  1  0
  2 19  1  0
  3 20  1  0
  3 21  1  0
  3 22  1  0
  4 23  1  0
  4 24  1  0
  6 25  1  0
  7 26  1  0
  9 27  1  0
 10 28  1  0
 11 29  1  1
 12 30  1  0
 12 31  1  0
 12 32  1  0
 15 33  1  0
M  END
>  <gfn_energy_norm>  (18) 
-0.630093

$$$$

     RDKit          3D

 33 33  0  0  0  0  0  0  0  0999 V2000
   -3.3997   -1.0951    0.0711 C   0  0  0  0  0  0  0  0  0  0  0  0
   -3.3005    0.3626    0.4063 C   0  0  0  0  0  0  0  0  0  0  0  0
   -3.5132    1.1733   -0.8551 C   0  0  0  0  0  0  0  0  0  0  0  0
   -4.2563    0.8029    1.4793 C   0  0  0  0  0  0  0  0  0  0  0  0
   -4.8205    2.1323    1.2660 C   0  0  0  0  0  0  0  0  0  0  0  0
   -4.6858    3.1027    2.2318 C   0  0  0  0  0  0  0  0  0  0  0  0
   -5.2133    4.3647    2.0458 C   0  0  0  0  0  0  0  0  0  0  0  0
   -5.8928    4.7102    0.8967 C   0  0  0  0  0  0  0  0  0  0  0  0
   -6.0146    3.7211   -0.0562 C   0  0  0  0  0  0  0  0  0  0  0  0
   -5.4927    2.4589    0.1183 C   0  0  0  0  0  0  0  0  0  0  0  0
   -6.4723    6.0224    0.6396 C   0  0  1  0  0  0  0  0  0  0  0  0
   -6.2067    6.9076    1.8698 C   0  0  0  0  0  0  0  0  0  0  0  0
   -5.8955    6.7389   -0.5026 C   0  0  0  0  0  0  0  0  0  0  0  0
   -6.4961    6.6841   -1.6036 O   0  0  0  0  0  0  0  0  0  0  0  0
   -4.7299    7.4789   -0.4649 O   0  0  0  0  0  0  0  0  0  0  0  0
   -2.5449   -1.6973    0.3651 H   0  0  0  0  0  0  0  0  0  0  0  0
   -3.5675   -1.2254   -1.0377 H   0  0  0  0  0  0  0  0  0  0  0  0
   -4.3062   -1.5255    0.5456 H   0  0  0  0  0  0  0  0  0  0  0  0
   -2.2732    0.5831    0.7636 H   0  0  0  0  0  0  0  0  0  0  0  0
   -3.1494    0.5706   -1.7061 H   0  0  0  0  0  0  0  0  0  0  0  0
   -2.9224    2.1069   -0.7303 H   0  0  0  0  0  0  0  0  0  0  0  0
   -4.6038    1.3961   -0.9245 H   0  0  0  0  0  0  0  0  0  0  0  0
   -3.7209    0.6933    2.4520 H   0  0  0  0  0  0  0  0  0  0  0  0
   -5.0978    0.0679    1.5237 H   0  0  0  0  0  0  0  0  0  0  0  0
   -4.1530    2.8835    3.1697 H   0  0  0  0  0  0  0  0  0  0  0  0
   -5.0733    5.0782    2.8401 H   0  0  0  0  0  0  0  0  0  0  0  0
   -6.5534    3.9494   -0.9998 H   0  0  0  0  0  0  0  0  0  0  0  0
   -5.6447    1.7518   -0.6962 H   0  0  0  0  0  0  0  0  0  0  0  0
   -7.5662    5.9212    0.4999 H   0  0  0  0  0  0  0  0  0  0  0  0
   -6.4014    6.3213    2.7819 H   0  0  0  0  0  0  0  0  0  0  0  0
   -6.8561    7.8149    1.8444 H   0  0  0  0  0  0  0  0  0  0  0  0
   -5.1615    7.2732    1.8621 H   0  0  0  0  0  0  0  0  0  0  0  0
   -4.0121    7.2205   -1.1501 H   0  0  0  0  0  0  0  0  0  0  0  0
  1  2  1  0
  2  3  1  0
  2  4  1  0
  4  5  1  0
  5  6  2  0
  6  7  1  0
  7  8  2  0
  8  9  1  0
  9 10  2  0
  8 11  1  0
 11 12  1  0
 11 13  1  0
 13 14  2  0
 13 15  1  0
 10  5  1  0
  1 16  1  0
  1 17  1  0
  1 18  1  0
  2 19  1  0
  3 20  1  0
  3 21  1  0
  3 22  1  0
  4 23  1  0
  4 24  1  0
  6 25  1  0
  7 26  1  0
  9 27  1  0
 10 28  1  0
 11 29  1  6
 12 30  1  0
 12 31  1  0
 12 32  1  0
 15 33  1  0
M  END
>  <gfn_energy_norm>  (19) 
-0.627393

$$$$

     RDKit          3D

 33 33  0  0  0  0  0  0  0  0999 V2000
   -3.3997   -1.0951    0.0711 C   0  0  0  0  0  0  0  0  0  0  0  0
   -3.3005    0.3626    0.4063 C   0  0  0  0  0  0  0  0  0  0  0  0
   -2.0843    0.9446   -0.2835 C   0  0  0  0  0  0  0  0  0  0  0  0
   -4.5307    1.1498    0.0515 C   0  0  0  0  0  0  0  0  0  0  0  0
   -4.3119    2.1689   -0.9706 C   0  0  0  0  0  0  0  0  0  0  0  0
   -5.2664    2.3957   -1.9350 C   0  0  0  0  0  0  0  0  0  0  0  0
   -5.0752    3.3555   -2.9084 C   0  0  0  0  0  0  0  0  0  0  0  0
   -3.9318    4.1246   -2.9612 C   0  0  0  0  0  0  0  0  0  0  0  0
   -2.9903    3.8789   -1.9844 C   0  0  0  0  0  0  0  0  0  0  0  0
   -3.1701    2.9242   -1.0085 C   0  0  0  0  0  0  0  0  0  0  0  0
   -3.6696    5.1519   -3.9610 C   0  0  1  0  0  0  0  0  0  0  0  0
   -2.8708    6.2795   -3.2844 C   0  0  0  0  0  0  0  0  0  0  0  0
   -2.8572    4.7119   -5.0999 C   0  0  0  0  0  0  0  0  0  0  0  0
   -2.4150    3.5371   -5.0961 O   0  0  0  0  0  0  0  0  0  0  0  0
   -2.5350    5.4955   -6.1908 O   0  0  0  0  0  0  0  0  0  0  0  0
   -2.5449   -1.6973    0.3651 H   0  0  0  0  0  0  0  0  0  0  0  0
   -3.5675   -1.2254   -1.0377 H   0  0  0  0  0  0  0  0  0  0  0  0
   -4.3062   -1.5255    0.5456 H   0  0  0  0  0  0  0  0  0  0  0  0
   -3.1372    0.4730    1.4984 H   0  0  0  0  0  0  0  0  0  0  0  0
   -2.3799    1.2143   -1.3128 H   0  0  0  0  0  0  0  0  0  0  0  0
   -1.3083    0.1484   -0.2738 H   0  0  0  0  0  0  0  0  0  0  0  0
   -1.7580    1.8288    0.3129 H   0  0  0  0  0  0  0  0  0  0  0  0
   -4.9412    1.5534    1.0072 H   0  0  0  0  0  0  0  0  0  0  0  0
   -5.3074    0.4382   -0.3235 H   0  0  0  0  0  0  0  0  0  0  0  0
   -6.1992    1.8115   -1.9422 H   0  0  0  0  0  0  0  0  0  0  0  0
   -5.8606    3.4835   -3.6340 H   0  0  0  0  0  0  0  0  0  0  0  0
   -2.0516    4.4721   -1.9833 H   0  0  0  0  0  0  0  0  0  0  0  0
   -2.3646    2.8100   -0.2841 H   0  0  0  0  0  0  0  0  0  0  0  0
   -4.6303    5.5631   -4.3276 H   0  0  0  0  0  0  0  0  0  0  0  0
   -2.5564    5.9448   -2.2830 H   0  0  0  0  0  0  0  0  0  0  0  0
   -3.4903    7.2047   -3.2088 H   0  0  0  0  0  0  0  0  0  0  0  0
   -1.9875    6.5461   -3.8968 H   0  0  0  0  0  0  0  0  0  0  0  0
   -2.2626    6.4621   -5.9841 H   0  0  0  0  0  0  0  0  0  0  0  0
  1  2  1  0
  2  3  1  0
  2  4  1  0
  4  5  1  0
  5  6  2  0
  6  7  1  0
  7  8  2  0
  8  9  1  0
  9 10  2  0
  8 11  1  0
 11 12  1  0
 11 13  1  0
 13 14  2  0
 13 15  1  0
 10  5  1  0
  1 16  1  0
  1 17  1  0
  1 18  1  0
  2 19  1  0
  3 20  1  0
  3 21  1  0
  3 22  1  0
  4 23  1  0
  4 24  1  0
  6 25  1  0
  7 26  1  0
  9 27  1  0
 10 28  1  0
 11 29  1  6
 12 30  1  0
 12 31  1  0
 12 32  1  0
 15 33  1  0
M  END
>  <gfn_energy_norm>  (20) 
-0.610965

$$$$

     RDKit          3D

 33 33  0  0  0  0  0  0  0  0999 V2000
   -3.3997   -1.0951    0.0711 C   0  0  0  0  0  0  0  0  0  0  0  0
   -3.3005    0.3626    0.4063 C   0  0  0  0  0  0  0  0  0  0  0  0
   -3.3387    1.1664   -0.8767 C   0  0  0  0  0  0  0  0  0  0  0  0
   -4.3646    0.8389    1.3548 C   0  0  0  0  0  0  0  0  0  0  0  0
   -4.5466    2.2873    1.3675 C   0  0  0  0  0  0  0  0  0  0  0  0
   -5.5690    2.8484    2.0973 C   0  0  0  0  0  0  0  0  0  0  0  0
   -5.7548    4.2160    2.1201 C   0  0  0  0  0  0  0  0  0  0  0  0
   -4.9348    5.0763    1.4207 C   0  0  0  0  0  0  0  0  0  0  0  0
   -3.9179    4.4904    0.6971 C   0  0  0  0  0  0  0  0  0  0  0  0
   -3.7228    3.1277    0.6669 C   0  0  0  0  0  0  0  0  0  0  0  0
   -5.0776    6.5265    1.4034 C   0  0  1  0  0  0  0  0  0  0  0  0
   -3.7735    7.1249    0.8478 C   0  0  0  0  0  0  0  0  0  0  0  0
   -6.1506    7.0309    0.5403 C   0  0  0  0  0  0  0  0  0  0  0  0
   -7.3159    7.0757    1.0049 O   0  0  0  0  0  0  0  0  0  0  0  0
   -5.9808    7.4664   -0.7595 O   0  0  0  0  0  0  0  0  0  0  0  0
   -2.5449   -1.6973    0.3651 H   0  0  0  0  0  0  0  0  0  0  0  0
   -3.5675   -1.2254   -1.0377 H   0  0  0  0  0  0  0  0  0  0  0  0
   -4.3062   -1.5255    0.5456 H   0  0  0  0  0  0  0  0  0  0  0  0
   -2.3173    0.5588    0.8822 H   0  0  0  0  0  0  0  0  0  0  0  0
   -2.3076    1.2216   -1.2684 H   0  0  0  0  0  0  0  0  0  0  0  0
   -3.7296    2.1711   -0.6048 H   0  0  0  0  0  0  0  0  0  0  0  0
   -4.0334    0.6421   -1.5742 H   0  0  0  0  0  0  0  0  0  0  0  0
   -4.1207    0.4084    2.3547 H   0  0  0  0  0  0  0  0  0  0  0  0
   -5.3344    0.3662    1.0610 H   0  0  0  0  0  0  0  0  0  0  0  0
   -6.2548    2.2103    2.6752 H   0  0  0  0  0  0  0  0  0  0  0  0
   -6.5733    4.5914    2.7107 H   0  0  0  0  0  0  0  0  0  0  0  0
   -3.2298    5.1404    0.1165 H   0  0  0  0  0  0  0  0  0  0  0  0
   -2.8900    2.7677    0.0640 H   0  0  0  0  0  0  0  0  0  0  0  0
   -5.2292    6.8942    2.4369 H   0  0  0  0  0  0  0  0  0  0  0  0
   -2.9877    7.0471    1.6159 H   0  0  0  0  0  0  0  0  0  0  0  0
   -3.9276    8.1908    0.5553 H   0  0  0  0  0  0  0  0  0  0  0  0
   -3.4671    6.5912   -0.0728 H   0  0  0  0  0  0  0  0  0  0  0  0
   -5.3928    6.8762   -1.3572 H   0  0  0  0  0  0  0  0  0  0  0  0
  1  2  1  0
  2  3  1  0
  2  4  1  0
  4  5  1  0
  5  6  2  0
  6  7  1  0
  7  8  2  0
  8  9  1  0
  9 10  2  0
  8 11  1  0
 11 12  1  0
 11 13  1  0
 13 14  2  0
 13 15  1  0
 10  5  1  0
  1 16  1  0
  1 17  1  0
  1 18  1  0
  2 19  1  0
  3 20  1  0
  3 21  1  0
  3 22  1  0
  4 23  1  0
  4 24  1  0
  6 25  1  0
  7 26  1  0
  9 27  1  0
 10 28  1  0
 11 29  1  1
 12 30  1  0
 12 31  1  0
 12 32  1  0
 15 33  1  0
M  END
>  <gfn_energy_norm>  (21) 
-0.607960

$$$$

     RDKit          3D

 33 33  0  0  0  0  0  0  0  0999 V2000
   -3.3997   -1.0951    0.0711 C   0  0  0  0  0  0  0  0  0  0  0  0
   -3.3005    0.3626    0.4063 C   0  0  0  0  0  0  0  0  0  0  0  0
   -2.2405    0.9979   -0.4692 C   0  0  0  0  0  0  0  0  0  0  0  0
   -4.6016    1.1034    0.2746 C   0  0  0  0  0  0  0  0  0  0  0  0
   -5.7241    0.2671   -0.1400 C   0  0  0  0  0  0  0  0  0  0  0  0
   -6.6005    0.7148   -1.1013 C   0  0  0  0  0  0  0  0  0  0  0  0
   -7.6669   -0.0634   -1.5046 C   0  0  0  0  0  0  0  0  0  0  0  0
   -7.9029   -1.3125   -0.9702 C   0  0  0  0  0  0  0  0  0  0  0  0
   -7.0112   -1.7390   -0.0090 C   0  0  0  0  0  0  0  0  0  0  0  0
   -5.9440   -0.9716    0.4013 C   0  0  0  0  0  0  0  0  0  0  0  0
   -9.0084   -2.1818   -1.3522 C   0  0  1  0  0  0  0  0  0  0  0  0
  -10.1468   -1.9750   -0.3379 C   0  0  0  0  0  0  0  0  0  0  0  0
   -9.5883   -1.9005   -2.6695 C   0  0  0  0  0  0  0  0  0  0  0  0
  -10.4806   -1.0213   -2.7508 O   0  0  0  0  0  0  0  0  0  0  0  0
   -9.2276   -2.5326   -3.8434 O   0  0  0  0  0  0  0  0  0  0  0  0
   -2.5449   -1.6973    0.3651 H   0  0  0  0  0  0  0  0  0  0  0  0
   -3.5675   -1.2254   -1.0377 H   0  0  0  0  0  0  0  0  0  0  0  0
   -4.3062   -1.5255    0.5456 H   0  0  0  0  0  0  0  0  0  0  0  0
   -2.9600    0.4704    1.4570 H   0  0  0  0  0  0  0  0  0  0  0  0
   -1.7799    0.1961   -1.0729 H   0  0  0  0  0  0  0  0  0  0  0  0
   -1.5054    1.4672    0.2204 H   0  0  0  0  0  0  0  0  0  0  0  0
   -2.7483    1.7675   -1.0968 H   0  0  0  0  0  0  0  0  0  0  0  0
   -4.4121    1.9688   -0.4034 H   0  0  0  0  0  0  0  0  0  0  0  0
   -4.8497    1.5569    1.2661 H   0  0  0  0  0  0  0  0  0  0  0  0
   -6.4615    1.7042   -1.5629 H   0  0  0  0  0  0  0  0  0  0  0  0
   -8.3156    0.3451   -2.2608 H   0  0  0  0  0  0  0  0  0  0  0  0
   -7.1577   -2.7383    0.4524 H   0  0  0  0  0  0  0  0  0  0  0  0
   -5.2996   -1.4022    1.1667 H   0  0  0  0  0  0  0  0  0  0  0  0
   -8.6781   -3.2380   -1.3103 H   0  0  0  0  0  0  0  0  0  0  0  0
  -11.0903   -2.3320   -0.7805 H   0  0  0  0  0  0  0  0  0  0  0  0
  -10.2304   -0.8972   -0.0605 H   0  0  0  0  0  0  0  0  0  0  0  0
   -9.9299   -2.5215    0.6004 H   0  0  0  0  0  0  0  0  0  0  0  0
   -8.2215   -2.6627   -3.9921 H   0  0  0  0  0  0  0  0  0  0  0  0
  1  2  1  0
  2  3  1  0
  2  4  1  0
  4  5  1  0
  5  6  2  0
  6  7  1  0
  7  8  2  0
  8  9  1  0
  9 10  2  0
  8 11  1  0
 11 12  1  0
 11 13  1  0
 13 14  2  0
 13 15  1  0
 10  5  1  0
  1 16  1  0
  1 17  1  0
  1 18  1  0
  2 19  1  0
  3 20  1  0
  3 21  1  0
  3 22  1  0
  4 23  1  0
  4 24  1  0
  6 25  1  0
  7 26  1  0
  9 27  1  0
 10 28  1  0
 11 29  1  6
 12 30  1  0
 12 31  1  0
 12 32  1  0
 15 33  1  0
M  END
>  <gfn_energy_norm>  (22) 
-0.586240

$$$$

     RDKit          3D

 33 33  0  0  0  0  0  0  0  0999 V2000
   -3.3997   -1.0951    0.0711 C   0  0  0  0  0  0  0  0  0  0  0  0
   -3.3005    0.3626    0.4063 C   0  0  0  0  0  0  0  0  0  0  0  0
   -1.9689    0.8911   -0.0850 C   0  0  0  0  0  0  0  0  0  0  0  0
   -4.4280    1.1884   -0.1466 C   0  0  0  0  0  0  0  0  0  0  0  0
   -5.3589    0.4400   -0.9860 C   0  0  0  0  0  0  0  0  0  0  0  0
   -6.1333   -0.5570   -0.4392 C   0  0  0  0  0  0  0  0  0  0  0  0
   -7.0183   -1.2740   -1.2190 C   0  0  0  0  0  0  0  0  0  0  0  0
   -7.1676   -1.0291   -2.5678 C   0  0  0  0  0  0  0  0  0  0  0  0
   -6.3809   -0.0256   -3.0925 C   0  0  0  0  0  0  0  0  0  0  0  0
   -5.4947    0.6962   -2.3245 C   0  0  0  0  0  0  0  0  0  0  0  0
   -8.0824   -1.7491   -3.4444 C   0  0  1  0  0  0  0  0  0  0  0  0
   -7.4039   -1.9001   -4.8171 C   0  0  0  0  0  0  0  0  0  0  0  0
   -8.4131   -3.1097   -3.0081 C   0  0  0  0  0  0  0  0  0  0  0  0
   -8.6420   -3.3040   -1.7893 O   0  0  0  0  0  0  0  0  0  0  0  0
   -8.4942   -4.2090   -3.8404 O   0  0  0  0  0  0  0  0  0  0  0  0
   -2.5449   -1.6973    0.3651 H   0  0  0  0  0  0  0  0  0  0  0  0
   -3.5675   -1.2254   -1.0377 H   0  0  0  0  0  0  0  0  0  0  0  0
   -4.3062   -1.5255    0.5456 H   0  0  0  0  0  0  0  0  0  0  0  0
   -3.3093    0.4821    1.5095 H   0  0  0  0  0  0  0  0  0  0  0  0
   -1.2292    0.7358    0.7202 H   0  0  0  0  0  0  0  0  0  0  0  0
   -2.1214    1.9712   -0.3005 H   0  0  0  0  0  0  0  0  0  0  0  0
   -1.7134    0.3298   -1.0142 H   0  0  0  0  0  0  0  0  0  0  0  0
   -3.9643    2.0634   -0.6604 H   0  0  0  0  0  0  0  0  0  0  0  0
   -4.9999    1.6216    0.7110 H   0  0  0  0  0  0  0  0  0  0  0  0
   -6.0563   -0.7963    0.6323 H   0  0  0  0  0  0  0  0  0  0  0  0
   -7.5949   -2.0409   -0.7300 H   0  0  0  0  0  0  0  0  0  0  0  0
   -6.4640    0.2103   -4.1743 H   0  0  0  0  0  0  0  0  0  0  0  0
   -4.9210    1.4672   -2.8374 H   0  0  0  0  0  0  0  0  0  0  0  0
   -9.0136   -1.1624   -3.5671 H   0  0  0  0  0  0  0  0  0  0  0  0
   -6.3704   -1.5250   -4.7491 H   0  0  0  0  0  0  0  0  0  0  0  0
   -7.9715   -1.3378   -5.5962 H   0  0  0  0  0  0  0  0  0  0  0  0
   -7.4091   -2.9612   -5.1340 H   0  0  0  0  0  0  0  0  0  0  0  0
   -8.3888   -5.1231   -3.3879 H   0  0  0  0  0  0  0  0  0  0  0  0
  1  2  1  0
  2  3  1  0
  2  4  1  0
  4  5  1  0
  5  6  2  0
  6  7  1  0
  7  8  2  0
  8  9  1  0
  9 10  2  0
  8 11  1  0
 11 12  1  0
 11 13  1  0
 13 14  2  0
 13 15  1  0
 10  5  1  0
  1 16  1  0
  1 17  1  0
  1 18  1  0
  2 19  1  0
  3 20  1  0
  3 21  1  0
  3 22  1  0
  4 23  1  0
  4 24  1  0
  6 25  1  0
  7 26  1  0
  9 27  1  0
 10 28  1  0
 11 29  1  6
 12 30  1  0
 12 31  1  0
 12 32  1  0
 15 33  1  0
M  END
>  <gfn_energy_norm>  (23) 
-0.583540

$$$$

     RDKit          3D

 33 33  0  0  0  0  0  0  0  0999 V2000
   -3.3997   -1.0951    0.0711 C   0  0  0  0  0  0  0  0  0  0  0  0
   -3.3005    0.3626    0.4063 C   0  0  0  0  0  0  0  0  0  0  0  0
   -2.2778    1.0087   -0.5050 C   0  0  0  0  0  0  0  0  0  0  0  0
   -4.6115    1.0929    0.3233 C   0  0  0  0  0  0  0  0  0  0  0  0
   -4.5122    2.4329   -0.2473 C   0  0  0  0  0  0  0  0  0  0  0  0
   -5.3210    3.4435    0.2187 C   0  0  0  0  0  0  0  0  0  0  0  0
   -5.2397    4.7160   -0.3098 C   0  0  0  0  0  0  0  0  0  0  0  0
   -4.3544    5.0327   -1.3186 C   0  0  0  0  0  0  0  0  0  0  0  0
   -3.5548    4.0036   -1.7688 C   0  0  0  0  0  0  0  0  0  0  0  0
   -3.6271    2.7304   -1.2492 C   0  0  0  0  0  0  0  0  0  0  0  0
   -4.2198    6.3541   -1.9184 C   0  0  1  0  0  0  0  0  0  0  0  0
   -2.7274    6.5952   -2.2049 C   0  0  0  0  0  0  0  0  0  0  0  0
   -4.9074    6.5220   -3.2028 C   0  0  0  0  0  0  0  0  0  0  0  0
   -4.3249    6.1326   -4.2444 O   0  0  0  0  0  0  0  0  0  0  0  0
   -6.1604    7.0812   -3.3616 O   0  0  0  0  0  0  0  0  0  0  0  0
   -2.5449   -1.6973    0.3651 H   0  0  0  0  0  0  0  0  0  0  0  0
   -3.5675   -1.2254   -1.0377 H   0  0  0  0  0  0  0  0  0  0  0  0
   -4.3062   -1.5255    0.5456 H   0  0  0  0  0  0  0  0  0  0  0  0
   -2.9234    0.4708    1.4444 H   0  0  0  0  0  0  0  0  0  0  0  0
   -1.5205    1.4965    0.1340 H   0  0  0  0  0  0  0  0  0  0  0  0
   -2.8324    1.7482   -1.1228 H   0  0  0  0  0  0  0  0  0  0  0  0
   -1.8447    0.2009   -1.1404 H   0  0  0  0  0  0  0  0  0  0  0  0
   -5.0567    1.0723    1.3461 H   0  0  0  0  0  0  0  0  0  0  0  0
   -5.3088    0.4922   -0.3117 H   0  0  0  0  0  0  0  0  0  0  0  0
   -6.0467    3.2487    1.0230 H   0  0  0  0  0  0  0  0  0  0  0  0
   -5.9005    5.4616    0.0989 H   0  0  0  0  0  0  0  0  0  0  0  0
   -2.8250    4.2075   -2.5804 H   0  0  0  0  0  0  0  0  0  0  0  0
   -2.9507    1.9908   -1.6758 H   0  0  0  0  0  0  0  0  0  0  0  0
   -4.5763    7.1212   -1.2037 H   0  0  0  0  0  0  0  0  0  0  0  0
   -2.3476    5.7780   -2.8386 H   0  0  0  0  0  0  0  0  0  0  0  0
   -2.1510    6.6477   -1.2507 H   0  0  0  0  0  0  0  0  0  0  0  0
   -2.5852    7.5713   -2.7080 H   0  0  0  0  0  0  0  0  0  0  0  0
   -6.1801    8.0810   -3.5880 H   0  0  0  0  0  0  0  0  0  0  0  0
  1  2  1  0
  2  3  1  0
  2  4  1  0
  4  5  1  0
  5  6  2  0
  6  7  1  0
  7  8  2  0
  8  9  1  0
  9 10  2  0
  8 11  1  0
 11 12  1  0
 11 13  1  0
 13 14  2  0
 13 15  1  0
 10  5  1  0
  1 16  1  0
  1 17  1  0
  1 18  1  0
  2 19  1  0
  3 20  1  0
  3 21  1  0
  3 22  1  0
  4 23  1  0
  4 24  1  0
  6 25  1  0
  7 26  1  0
  9 27  1  0
 10 28  1  0
 11 29  1  1
 12 30  1  0
 12 31  1  0
 12 32  1  0
 15 33  1  0
M  END
>  <gfn_energy_norm>  (24) 
-0.573614

$$$$

     RDKit          3D

 33 33  0  0  0  0  0  0  0  0999 V2000
   -3.3997   -1.0951    0.0711 C   0  0  0  0  0  0  0  0  0  0  0  0
   -3.3005    0.3626    0.4063 C   0  0  0  0  0  0  0  0  0  0  0  0
   -2.8990    1.1275   -0.8377 C   0  0  0  0  0  0  0  0  0  0  0  0
   -4.5612    0.9362    0.9898 C   0  0  0  0  0  0  0  0  0  0  0  0
   -4.5480    1.0456    2.4455 C   0  0  0  0  0  0  0  0  0  0  0  0
   -3.8976    2.0945    3.0533 C   0  0  0  0  0  0  0  0  0  0  0  0
   -3.8756    2.2126    4.4284 C   0  0  0  0  0  0  0  0  0  0  0  0
   -4.4971    1.2961    5.2502 C   0  0  0  0  0  0  0  0  0  0  0  0
   -5.1420    0.2543    4.6180 C   0  0  0  0  0  0  0  0  0  0  0  0
   -5.1706    0.1261    3.2472 C   0  0  0  0  0  0  0  0  0  0  0  0
   -4.5107    1.3639    6.7059 C   0  0  1  0  0  0  0  0  0  0  0  0
   -3.7037    2.6031    7.1307 C   0  0  0  0  0  0  0  0  0  0  0  0
   -5.8399    1.5259    7.3040 C   0  0  0  0  0  0  0  0  0  0  0  0
   -6.6680    0.5914    7.1745 O   0  0  0  0  0  0  0  0  0  0  0  0
   -6.2602    2.6379    8.0073 O   0  0  0  0  0  0  0  0  0  0  0  0
   -2.5449   -1.6973    0.3651 H   0  0  0  0  0  0  0  0  0  0  0  0
   -3.5675   -1.2254   -1.0377 H   0  0  0  0  0  0  0  0  0  0  0  0
   -4.3062   -1.5255    0.5456 H   0  0  0  0  0  0  0  0  0  0  0  0
   -2.4913    0.5087    1.1516 H   0  0  0  0  0  0  0  0  0  0  0  0
   -2.6627    0.3885   -1.6236 H   0  0  0  0  0  0  0  0  0  0  0  0
   -2.0077    1.7312   -0.5596 H   0  0  0  0  0  0  0  0  0  0  0  0
   -3.7574    1.7843   -1.1128 H   0  0  0  0  0  0  0  0  0  0  0  0
   -5.4064    0.3254    0.5932 H   0  0  0  0  0  0  0  0  0  0  0  0
   -4.7129    1.9584    0.5628 H   0  0  0  0  0  0  0  0  0  0  0  0
   -3.3840    2.8564    2.4473 H   0  0  0  0  0  0  0  0  0  0  0  0
   -3.3493    3.0565    4.8412 H   0  0  0  0  0  0  0  0  0  0  0  0
   -5.6580   -0.5106    5.2357 H   0  0  0  0  0  0  0  0  0  0  0  0
   -5.7078   -0.7338    2.8492 H   0  0  0  0  0  0  0  0  0  0  0  0
   -4.0249    0.4597    7.1215 H   0  0  0  0  0  0  0  0  0  0  0  0
   -3.7970    3.3760    6.3512 H   0  0  0  0  0  0  0  0  0  0  0  0
   -2.6316    2.3353    7.2867 H   0  0  0  0  0  0  0  0  0  0  0  0
   -4.0724    2.9879    8.1014 H   0  0  0  0  0  0  0  0  0  0  0  0
   -7.2730    2.7293    8.1388 H   0  0  0  0  0  0  0  0  0  0  0  0
  1  2  1  0
  2  3  1  0
  2  4  1  0
  4  5  1  0
  5  6  2  0
  6  7  1  0
  7  8  2  0
  8  9  1  0
  9 10  2  0
  8 11  1  0
 11 12  1  0
 11 13  1  0
 13 14  2  0
 13 15  1  0
 10  5  1  0
  1 16  1  0
  1 17  1  0
  1 18  1  0
  2 19  1  0
  3 20  1  0
  3 21  1  0
  3 22  1  0
  4 23  1  0
  4 24  1  0
  6 25  1  0
  7 26  1  0
  9 27  1  0
 10 28  1  0
 11 29  1  1
 12 30  1  0
 12 31  1  0
 12 32  1  0
 15 33  1  0
M  END
>  <gfn_energy_norm>  (25) 
-0.566870

$$$$

     RDKit          3D

 33 33  0  0  0  0  0  0  0  0999 V2000
   -3.3997   -1.0951    0.0711 C   0  0  0  0  0  0  0  0  0  0  0  0
   -3.3005    0.3626    0.4063 C   0  0  0  0  0  0  0  0  0  0  0  0
   -1.8411    0.7673    0.4158 C   0  0  0  0  0  0  0  0  0  0  0  0
   -4.0843    1.2506   -0.5190 C   0  0  0  0  0  0  0  0  0  0  0  0
   -4.1179    2.6525   -0.1131 C   0  0  0  0  0  0  0  0  0  0  0  0
   -3.5291    3.0440    1.0670 C   0  0  0  0  0  0  0  0  0  0  0  0
   -3.5519    4.3654    1.4653 C   0  0  0  0  0  0  0  0  0  0  0  0
   -4.1588    5.3459    0.7090 C   0  0  0  0  0  0  0  0  0  0  0  0
   -4.7417    4.9291   -0.4690 C   0  0  0  0  0  0  0  0  0  0  0  0
   -4.7251    3.6138   -0.8765 C   0  0  0  0  0  0  0  0  0  0  0  0
   -4.2174    6.7558    1.0729 C   0  0  1  0  0  0  0  0  0  0  0  0
   -2.8974    7.4140    0.6351 C   0  0  0  0  0  0  0  0  0  0  0  0
   -5.2838    7.5190    0.4163 C   0  0  0  0  0  0  0  0  0  0  0  0
   -6.2047    6.8843   -0.1537 O   0  0  0  0  0  0  0  0  0  0  0  0
   -5.3581    8.8976    0.3736 O   0  0  0  0  0  0  0  0  0  0  0  0
   -2.5449   -1.6973    0.3651 H   0  0  0  0  0  0  0  0  0  0  0  0
   -3.5675   -1.2254   -1.0377 H   0  0  0  0  0  0  0  0  0  0  0  0
   -4.3062   -1.5255    0.5456 H   0  0  0  0  0  0  0  0  0  0  0  0
   -3.6885    0.5255    1.4331 H   0  0  0  0  0  0  0  0  0  0  0  0
   -1.6154    1.1835    1.4135 H   0  0  0  0  0  0  0  0  0  0  0  0
   -1.7228    1.5302   -0.3843 H   0  0  0  0  0  0  0  0  0  0  0  0
   -1.2435   -0.1466    0.1888 H   0  0  0  0  0  0  0  0  0  0  0  0
   -5.0947    0.7904   -0.6276 H   0  0  0  0  0  0  0  0  0  0  0  0
   -3.6245    1.1911   -1.5365 H   0  0  0  0  0  0  0  0  0  0  0  0
   -3.0299    2.3044    1.7114 H   0  0  0  0  0  0  0  0  0  0  0  0
   -3.0730    4.6059    2.3993 H   0  0  0  0  0  0  0  0  0  0  0  0
   -5.2435    5.6807   -1.1141 H   0  0  0  0  0  0  0  0  0  0  0  0
   -5.2147    3.3909   -1.8237 H   0  0  0  0  0  0  0  0  0  0  0  0
   -4.3175    6.8488    2.1719 H   0  0  0  0  0  0  0  0  0  0  0  0
   -2.8387    7.4022   -0.4649 H   0  0  0  0  0  0  0  0  0  0  0  0
   -2.0270    6.8732    1.0771 H   0  0  0  0  0  0  0  0  0  0  0  0
   -2.8421    8.4534    1.0131 H   0  0  0  0  0  0  0  0  0  0  0  0
   -5.9910    9.3340    1.0522 H   0  0  0  0  0  0  0  0  0  0  0  0
  1  2  1  0
  2  3  1  0
  2  4  1  0
  4  5  1  0
  5  6  2  0
  6  7  1  0
  7  8  2  0
  8  9  1  0
  9 10  2  0
  8 11  1  0
 11 12  1  0
 11 13  1  0
 13 14  2  0
 13 15  1  0
 10  5  1  0
  1 16  1  0
  1 17  1  0
  1 18  1  0
  2 19  1  0
  3 20  1  0
  3 21  1  0
  3 22  1  0
  4 23  1  0
  4 24  1  0
  6 25  1  0
  7 26  1  0
  9 27  1  0
 10 28  1  0
 11 29  1  1
 12 30  1  0
 12 31  1  0
 12 32  1  0
 15 33  1  0
M  END
>  <gfn_energy_norm>  (26) 
-0.551782

$$$$

     RDKit          3D

 33 33  0  0  0  0  0  0  0  0999 V2000
   -3.3997   -1.0951    0.0711 C   0  0  0  0  0  0  0  0  0  0  0  0
   -3.3005    0.3626    0.4063 C   0  0  0  0  0  0  0  0  0  0  0  0
   -4.4872    1.0875   -0.1935 C   0  0  0  0  0  0  0  0  0  0  0  0
   -3.2081    0.6393    1.8807 C   0  0  0  0  0  0  0  0  0  0  0  0
   -3.3487   -0.5472    2.7196 C   0  0  0  0  0  0  0  0  0  0  0  0
   -4.1013   -1.6141    2.2860 C   0  0  0  0  0  0  0  0  0  0  0  0
   -4.2443   -2.7433    3.0669 C   0  0  0  0  0  0  0  0  0  0  0  0
   -3.6471   -2.8558    4.3048 C   0  0  0  0  0  0  0  0  0  0  0  0
   -2.8984   -1.7739    4.7172 C   0  0  0  0  0  0  0  0  0  0  0  0
   -2.7486   -0.6424    3.9470 C   0  0  0  0  0  0  0  0  0  0  0  0
   -3.7589   -4.0185    5.1762 C   0  0  1  0  0  0  0  0  0  0  0  0
   -4.7801   -4.9842    4.5500 C   0  0  0  0  0  0  0  0  0  0  0  0
   -2.5225   -4.7906    5.3371 C   0  0  0  0  0  0  0  0  0  0  0  0
   -2.5356   -5.7799    6.1097 O   0  0  0  0  0  0  0  0  0  0  0  0
   -1.3290   -4.5140    4.6991 O   0  0  0  0  0  0  0  0  0  0  0  0
   -2.5449   -1.6973    0.3651 H   0  0  0  0  0  0  0  0  0  0  0  0
   -3.5675   -1.2254   -1.0377 H   0  0  0  0  0  0  0  0  0  0  0  0
   -4.3062   -1.5255    0.5456 H   0  0  0  0  0  0  0  0  0  0  0  0
   -2.3901    0.7826   -0.0696 H   0  0  0  0  0  0  0  0  0  0  0  0
   -4.9031    1.7509    0.5853 H   0  0  0  0  0  0  0  0  0  0  0  0
   -5.2137    0.3019   -0.4953 H   0  0  0  0  0  0  0  0  0  0  0  0
   -4.1156    1.6512   -1.0812 H   0  0  0  0  0  0  0  0  0  0  0  0
   -3.9531    1.4388    2.1054 H   0  0  0  0  0  0  0  0  0  0  0  0
   -2.2113    1.1006    2.0900 H   0  0  0  0  0  0  0  0  0  0  0  0
   -4.6011   -1.5802    1.3060 H   0  0  0  0  0  0  0  0  0  0  0  0
   -4.8464   -3.5429    2.6698 H   0  0  0  0  0  0  0  0  0  0  0  0
   -2.3969   -1.8152    5.7071 H   0  0  0  0  0  0  0  0  0  0  0  0
   -2.1361    0.1549    4.3660 H   0  0  0  0  0  0  0  0  0  0  0  0
   -4.1291   -3.6999    6.1701 H   0  0  0  0  0  0  0  0  0  0  0  0
   -4.2930   -5.9567    4.3751 H   0  0  0  0  0  0  0  0  0  0  0  0
   -5.1732   -4.5680    3.5920 H   0  0  0  0  0  0  0  0  0  0  0  0
   -5.6546   -5.1055    5.2183 H   0  0  0  0  0  0  0  0  0  0  0  0
   -1.2576   -4.8274    3.7255 H   0  0  0  0  0  0  0  0  0  0  0  0
  1  2  1  0
  2  3  1  0
  2  4  1  0
  4  5  1  0
  5  6  2  0
  6  7  1  0
  7  8  2  0
  8  9  1  0
  9 10  2  0
  8 11  1  0
 11 12  1  0
 11 13  1  0
 13 14  2  0
 13 15  1  0
 10  5  1  0
  1 16  1  0
  1 17  1  0
  1 18  1  0
  2 19  1  0
  3 20  1  0
  3 21  1  0
  3 22  1  0
  4 23  1  0
  4 24  1  0
  6 25  1  0
  7 26  1  0
  9 27  1  0
 10 28  1  0
 11 29  1  1
 12 30  1  0
 12 31  1  0
 12 32  1  0
 15 33  1  0
M  END
>  <gfn_energy_norm>  (27) 
-0.551489

$$$$

     RDKit          3D

 33 33  0  0  0  0  0  0  0  0999 V2000
   -3.3997   -1.0951    0.0711 C   0  0  0  0  0  0  0  0  0  0  0  0
   -3.3005    0.3626    0.4063 C   0  0  0  0  0  0  0  0  0  0  0  0
   -3.6950    0.5627    1.8546 C   0  0  0  0  0  0  0  0  0  0  0  0
   -1.9422    0.9517    0.1471 C   0  0  0  0  0  0  0  0  0  0  0  0
   -1.2351    0.3468   -0.9778 C   0  0  0  0  0  0  0  0  0  0  0  0
   -1.8110    0.3302   -2.2270 C   0  0  0  0  0  0  0  0  0  0  0  0
   -1.1559   -0.2377   -3.3011 C   0  0  0  0  0  0  0  0  0  0  0  0
    0.0927   -0.8093   -3.1760 C   0  0  0  0  0  0  0  0  0  0  0  0
    0.6490   -0.7805   -1.9147 C   0  0  0  0  0  0  0  0  0  0  0  0
    0.0050   -0.2168   -0.8359 C   0  0  0  0  0  0  0  0  0  0  0  0
    0.8360   -1.4239   -4.2685 C   0  0  1  0  0  0  0  0  0  0  0  0
   -0.1805   -2.0300   -5.2518 C   0  0  0  0  0  0  0  0  0  0  0  0
    1.6539   -0.4967   -5.0572 C   0  0  0  0  0  0  0  0  0  0  0  0
    1.0696    0.3930   -5.7226 O   0  0  0  0  0  0  0  0  0  0  0  0
    3.0331   -0.5233   -5.1283 O   0  0  0  0  0  0  0  0  0  0  0  0
   -2.5449   -1.6973    0.3651 H   0  0  0  0  0  0  0  0  0  0  0  0
   -3.5675   -1.2254   -1.0377 H   0  0  0  0  0  0  0  0  0  0  0  0
   -4.3062   -1.5255    0.5456 H   0  0  0  0  0  0  0  0  0  0  0  0
   -4.0316    0.9265   -0.2094 H   0  0  0  0  0  0  0  0  0  0  0  0
   -4.5085   -0.1488    2.0817 H   0  0  0  0  0  0  0  0  0  0  0  0
   -4.0348    1.6176    1.9434 H   0  0  0  0  0  0  0  0  0  0  0  0
   -2.7844    0.3822    2.4729 H   0  0  0  0  0  0  0  0  0  0  0  0
   -1.3805    0.9014    1.1097 H   0  0  0  0  0  0  0  0  0  0  0  0
   -2.0665    2.0429   -0.0628 H   0  0  0  0  0  0  0  0  0  0  0  0
   -2.8065    0.7720   -2.3862 H   0  0  0  0  0  0  0  0  0  0  0  0
   -1.6613   -0.2180   -4.2518 H   0  0  0  0  0  0  0  0  0  0  0  0
    1.6536   -1.2280   -1.7616 H   0  0  0  0  0  0  0  0  0  0  0  0
    0.5325   -0.2467    0.1167 H   0  0  0  0  0  0  0  0  0  0  0  0
    1.4757   -2.2347   -3.8687 H   0  0  0  0  0  0  0  0  0  0  0  0
   -0.9600   -2.5590   -4.6807 H   0  0  0  0  0  0  0  0  0  0  0  0
    0.3286   -2.7302   -5.9561 H   0  0  0  0  0  0  0  0  0  0  0  0
   -0.6324   -1.2350   -5.8763 H   0  0  0  0  0  0  0  0  0  0  0  0
    3.5261    0.1475   -4.5297 H   0  0  0  0  0  0  0  0  0  0  0  0
  1  2  1  0
  2  3  1  0
  2  4  1  0
  4  5  1  0
  5  6  2  0
  6  7  1  0
  7  8  2  0
  8  9  1  0
  9 10  2  0
  8 11  1  0
 11 12  1  0
 11 13  1  0
 13 14  2  0
 13 15  1  0
 10  5  1  0
  1 16  1  0
  1 17  1  0
  1 18  1  0
  2 19  1  0
  3 20  1  0
  3 21  1  0
  3 22  1  0
  4 23  1  0
  4 24  1  0
  6 25  1  0
  7 26  1  0
  9 27  1  0
 10 28  1  0
 11 29  1  1
 12 30  1  0
 12 31  1  0
 12 32  1  0
 15 33  1  0
M  END
>  <gfn_energy_norm>  (28) 
-0.551061

$$$$

     RDKit          3D

 33 33  0  0  0  0  0  0  0  0999 V2000
   -3.3997   -1.0951    0.0711 C   0  0  0  0  0  0  0  0  0  0  0  0
   -3.3005    0.3626    0.4063 C   0  0  0  0  0  0  0  0  0  0  0  0
   -4.5696    0.7931    1.1116 C   0  0  0  0  0  0  0  0  0  0  0  0
   -2.0963    0.7120    1.2350 C   0  0  0  0  0  0  0  0  0  0  0  0
   -0.8559    0.0959    0.7733 C   0  0  0  0  0  0  0  0  0  0  0  0
    0.0444   -0.4090    1.6827 C   0  0  0  0  0  0  0  0  0  0  0  0
    1.2217   -0.9947    1.2627 C   0  0  0  0  0  0  0  0  0  0  0  0
    1.5490   -1.1010   -0.0726 C   0  0  0  0  0  0  0  0  0  0  0  0
    0.6310   -0.5879   -0.9644 C   0  0  0  0  0  0  0  0  0  0  0  0
   -0.5465   -0.0015   -0.5573 C   0  0  0  0  0  0  0  0  0  0  0  0
    2.7734   -1.7068   -0.5801 C   0  0  1  0  0  0  0  0  0  0  0  0
    3.6517   -2.0830    0.6259 C   0  0  0  0  0  0  0  0  0  0  0  0
    2.5801   -2.9471   -1.3385 C   0  0  0  0  0  0  0  0  0  0  0  0
    1.8203   -3.8243   -0.8600 O   0  0  0  0  0  0  0  0  0  0  0  0
    3.1741   -3.2321   -2.5525 O   0  0  0  0  0  0  0  0  0  0  0  0
   -2.5449   -1.6973    0.3651 H   0  0  0  0  0  0  0  0  0  0  0  0
   -3.5675   -1.2254   -1.0377 H   0  0  0  0  0  0  0  0  0  0  0  0
   -4.3062   -1.5255    0.5456 H   0  0  0  0  0  0  0  0  0  0  0  0
   -3.2387    0.9473   -0.5350 H   0  0  0  0  0  0  0  0  0  0  0  0
   -5.4237    0.4777    0.4865 H   0  0  0  0  0  0  0  0  0  0  0  0
   -4.5154    1.8996    1.2054 H   0  0  0  0  0  0  0  0  0  0  0  0
   -4.5713    0.3060    2.1149 H   0  0  0  0  0  0  0  0  0  0  0  0
   -2.3519    0.4679    2.2932 H   0  0  0  0  0  0  0  0  0  0  0  0
   -1.9653    1.8223    1.2140 H   0  0  0  0  0  0  0  0  0  0  0  0
   -0.1640   -0.3519    2.7619 H   0  0  0  0  0  0  0  0  0  0  0  0
    1.8835   -1.3701    2.0248 H   0  0  0  0  0  0  0  0  0  0  0  0
    0.8480   -0.6490   -2.0517 H   0  0  0  0  0  0  0  0  0  0  0  0
   -1.2021    0.3719   -1.3429 H   0  0  0  0  0  0  0  0  0  0  0  0
    3.3172   -0.9713   -1.2043 H   0  0  0  0  0  0  0  0  0  0  0  0
    4.7000   -2.1592    0.2959 H   0  0  0  0  0  0  0  0  0  0  0  0
    3.3120   -3.0494    1.0689 H   0  0  0  0  0  0  0  0  0  0  0  0
    3.5532   -1.3231    1.4253 H   0  0  0  0  0  0  0  0  0  0  0  0
    4.1787   -3.0370   -2.6172 H   0  0  0  0  0  0  0  0  0  0  0  0
  1  2  1  0
  2  3  1  0
  2  4  1  0
  4  5  1  0
  5  6  2  0
  6  7  1  0
  7  8  2  0
  8  9  1  0
  9 10  2  0
  8 11  1  0
 11 12  1  0
 11 13  1  0
 13 14  2  0
 13 15  1  0
 10  5  1  0
  1 16  1  0
  1 17  1  0
  1 18  1  0
  2 19  1  0
  3 20  1  0
  3 21  1  0
  3 22  1  0
  4 23  1  0
  4 24  1  0
  6 25  1  0
  7 26  1  0
  9 27  1  0
 10 28  1  0
 11 29  1  6
 12 30  1  0
 12 31  1  0
 12 32  1  0
 15 33  1  0
M  END
>  <gfn_energy_norm>  (29) 
-0.531061

$$$$

     RDKit          3D

 33 33  0  0  0  0  0  0  0  0999 V2000
   -3.3997   -1.0951    0.0711 C   0  0  0  0  0  0  0  0  0  0  0  0
   -3.3005    0.3626    0.4063 C   0  0  0  0  0  0  0  0  0  0  0  0
   -4.3182    0.6917    1.4784 C   0  0  0  0  0  0  0  0  0  0  0  0
   -1.9265    0.7915    0.8390 C   0  0  0  0  0  0  0  0  0  0  0  0
   -0.8417    0.1321    0.1180 C   0  0  0  0  0  0  0  0  0  0  0  0
   -0.1792    0.7947   -0.8892 C   0  0  0  0  0  0  0  0  0  0  0  0
    0.8486    0.1856   -1.5807 C   0  0  0  0  0  0  0  0  0  0  0  0
    1.2566   -1.1011   -1.2989 C   0  0  0  0  0  0  0  0  0  0  0  0
    0.5776   -1.7442   -0.2857 C   0  0  0  0  0  0  0  0  0  0  0  0
   -0.4491   -1.1469    0.4108 C   0  0  0  0  0  0  0  0  0  0  0  0
    2.3326   -1.7994   -1.9905 C   0  0  1  0  0  0  0  0  0  0  0  0
    3.6625   -1.3912   -1.3331 C   0  0  0  0  0  0  0  0  0  0  0  0
    2.2746   -3.2623   -1.9046 C   0  0  0  0  0  0  0  0  0  0  0  0
    2.8635   -3.8255   -0.9497 O   0  0  0  0  0  0  0  0  0  0  0  0
    1.6160   -4.0814   -2.8007 O   0  0  0  0  0  0  0  0  0  0  0  0
   -2.5449   -1.6973    0.3651 H   0  0  0  0  0  0  0  0  0  0  0  0
   -3.5675   -1.2254   -1.0377 H   0  0  0  0  0  0  0  0  0  0  0  0
   -4.3062   -1.5255    0.5456 H   0  0  0  0  0  0  0  0  0  0  0  0
   -3.5695    0.9595   -0.4898 H   0  0  0  0  0  0  0  0  0  0  0  0
   -3.8268    1.3504    2.2160 H   0  0  0  0  0  0  0  0  0  0  0  0
   -4.6209   -0.2780    1.9305 H   0  0  0  0  0  0  0  0  0  0  0  0
   -5.1819    1.1847    0.9735 H   0  0  0  0  0  0  0  0  0  0  0  0
   -1.8795    0.6532    1.9450 H   0  0  0  0  0  0  0  0  0  0  0  0
   -1.8354    1.8942    0.6775 H   0  0  0  0  0  0  0  0  0  0  0  0
   -0.4620    1.8240   -1.1576 H   0  0  0  0  0  0  0  0  0  0  0  0
    1.3261    0.7586   -2.3574 H   0  0  0  0  0  0  0  0  0  0  0  0
    0.8684   -2.7825   -0.0204 H   0  0  0  0  0  0  0  0  0  0  0  0
   -0.9192   -1.7425    1.1923 H   0  0  0  0  0  0  0  0  0  0  0  0
    2.3485   -1.4908   -3.0539 H   0  0  0  0  0  0  0  0  0  0  0  0
    3.6688   -1.7426   -0.2890 H   0  0  0  0  0  0  0  0  0  0  0  0
    3.7924   -0.2835   -1.3717 H   0  0  0  0  0  0  0  0  0  0  0  0
    4.5159   -1.8238   -1.8907 H   0  0  0  0  0  0  0  0  0  0  0  0
    0.6135   -4.2160   -2.6324 H   0  0  0  0  0  0  0  0  0  0  0  0
  1  2  1  0
  2  3  1  0
  2  4  1  0
  4  5  1  0
  5  6  2  0
  6  7  1  0
  7  8  2  0
  8  9  1  0
  9 10  2  0
  8 11  1  0
 11 12  1  0
 11 13  1  0
 13 14  2  0
 13 15  1  0
 10  5  1  0
  1 16  1  0
  1 17  1  0
  1 18  1  0
  2 19  1  0
  3 20  1  0
  3 21  1  0
  3 22  1  0
  4 23  1  0
  4 24  1  0
  6 25  1  0
  7 26  1  0
  9 27  1  0
 10 28  1  0
 11 29  1  6
 12 30  1  0
 12 31  1  0
 12 32  1  0
 15 33  1  0
M  END
>  <gfn_energy_norm>  (30) 
-0.519929

$$$$

     RDKit          3D

 33 33  0  0  0  0  0  0  0  0999 V2000
   -3.3997   -1.0951    0.0711 C   0  0  0  0  0  0  0  0  0  0  0  0
   -3.3005    0.3626    0.4063 C   0  0  0  0  0  0  0  0  0  0  0  0
   -2.0185    0.9163   -0.1799 C   0  0  0  0  0  0  0  0  0  0  0  0
   -4.4800    1.1712   -0.0562 C   0  0  0  0  0  0  0  0  0  0  0  0
   -5.7661    0.6810    0.4305 C   0  0  0  0  0  0  0  0  0  0  0  0
   -5.8341   -0.0291    1.6068 C   0  0  0  0  0  0  0  0  0  0  0  0
   -7.0421   -0.4995    2.0809 C   0  0  0  0  0  0  0  0  0  0  0  0
   -8.2255   -0.2834    1.4068 C   0  0  0  0  0  0  0  0  0  0  0  0
   -8.1317    0.4305    0.2309 C   0  0  0  0  0  0  0  0  0  0  0  0
   -6.9324    0.9047   -0.2518 C   0  0  0  0  0  0  0  0  0  0  0  0
   -9.5310   -0.7525    1.8531 C   0  0  1  0  0  0  0  0  0  0  0  0
   -9.6154   -0.5434    3.3751 C   0  0  0  0  0  0  0  0  0  0  0  0
  -10.6739   -0.0304    1.2846 C   0  0  0  0  0  0  0  0  0  0  0  0
  -11.2667    0.8076    2.0072 O   0  0  0  0  0  0  0  0  0  0  0  0
  -11.1574   -0.1998    0.0019 O   0  0  0  0  0  0  0  0  0  0  0  0
   -2.5449   -1.6973    0.3651 H   0  0  0  0  0  0  0  0  0  0  0  0
   -3.5675   -1.2254   -1.0377 H   0  0  0  0  0  0  0  0  0  0  0  0
   -4.3062   -1.5255    0.5456 H   0  0  0  0  0  0  0  0  0  0  0  0
   -3.2288    0.4771    1.5078 H   0  0  0  0  0  0  0  0  0  0  0  0
   -2.2903    1.5447   -1.0464 H   0  0  0  0  0  0  0  0  0  0  0  0
   -1.4087    0.0379   -0.4843 H   0  0  0  0  0  0  0  0  0  0  0  0
   -1.5105    1.4963    0.6260 H   0  0  0  0  0  0  0  0  0  0  0  0
   -4.4138    1.2300   -1.1684 H   0  0  0  0  0  0  0  0  0  0  0  0
   -4.3474    2.2224    0.3011 H   0  0  0  0  0  0  0  0  0  0  0  0
   -4.9213   -0.2318    2.1874 H   0  0  0  0  0  0  0  0  0  0  0  0
   -7.0269   -1.0481    3.0074 H   0  0  0  0  0  0  0  0  0  0  0  0
   -9.0567    0.6313   -0.3496 H   0  0  0  0  0  0  0  0  0  0  0  0
   -6.9687    1.4569   -1.1901 H   0  0  0  0  0  0  0  0  0  0  0  0
   -9.6290   -1.8335    1.6335 H   0  0  0  0  0  0  0  0  0  0  0  0
   -9.3451   -1.4836    3.8815 H   0  0  0  0  0  0  0  0  0  0  0  0
  -10.6442   -0.2253    3.6682 H   0  0  0  0  0  0  0  0  0  0  0  0
   -8.9364    0.2730    3.6894 H   0  0  0  0  0  0  0  0  0  0  0  0
  -10.6816    0.3362   -0.7313 H   0  0  0  0  0  0  0  0  0  0  0  0
  1  2  1  0
  2  3  1  0
  2  4  1  0
  4  5  1  0
  5  6  2  0
  6  7  1  0
  7  8  2  0
  8  9  1  0
  9 10  2  0
  8 11  1  0
 11 12  1  0
 11 13  1  0
 13 14  2  0
 13 15  1  0
 10  5  1  0
  1 16  1  0
  1 17  1  0
  1 18  1  0
  2 19  1  0
  3 20  1  0
  3 21  1  0
  3 22  1  0
  4 23  1  0
  4 24  1  0
  6 25  1  0
  7 26  1  0
  9 27  1  0
 10 28  1  0
 11 29  1  1
 12 30  1  0
 12 31  1  0
 12 32  1  0
 15 33  1  0
M  END
>  <gfn_energy_norm>  (31) 
-0.500611

$$$$

     RDKit          3D

 33 33  0  0  0  0  0  0  0  0999 V2000
   -3.3997   -1.0951    0.0711 C   0  0  0  0  0  0  0  0  0  0  0  0
   -3.3005    0.3626    0.4063 C   0  0  0  0  0  0  0  0  0  0  0  0
   -3.8650    1.1715   -0.7429 C   0  0  0  0  0  0  0  0  0  0  0  0
   -3.9815    0.7350    1.6933 C   0  0  0  0  0  0  0  0  0  0  0  0
   -3.3370    1.8290    2.4137 C   0  0  0  0  0  0  0  0  0  0  0  0
   -2.0988    1.6451    2.9844 C   0  0  0  0  0  0  0  0  0  0  0  0
   -1.4757    2.6691    3.6689 C   0  0  0  0  0  0  0  0  0  0  0  0
   -2.0568    3.9113    3.8125 C   0  0  0  0  0  0  0  0  0  0  0  0
   -3.2972    4.0711    3.2320 C   0  0  0  0  0  0  0  0  0  0  0  0
   -3.9284    3.0571    2.5469 C   0  0  0  0  0  0  0  0  0  0  0  0
   -1.4525    5.0319    4.5217 C   0  0  1  0  0  0  0  0  0  0  0  0
   -0.5362    4.4609    5.6180 C   0  0  0  0  0  0  0  0  0  0  0  0
   -0.6019    5.8973    3.6981 C   0  0  0  0  0  0  0  0  0  0  0  0
   -1.1354    6.5324    2.7559 O   0  0  0  0  0  0  0  0  0  0  0  0
    0.7564    6.0726    3.8773 O   0  0  0  0  0  0  0  0  0  0  0  0
   -2.5449   -1.6973    0.3651 H   0  0  0  0  0  0  0  0  0  0  0  0
   -3.5675   -1.2254   -1.0377 H   0  0  0  0  0  0  0  0  0  0  0  0
   -4.3062   -1.5255    0.5456 H   0  0  0  0  0  0  0  0  0  0  0  0
   -2.2303    0.6401    0.5027 H   0  0  0  0  0  0  0  0  0  0  0  0
   -4.5422    0.5130   -1.3152 H   0  0  0  0  0  0  0  0  0  0  0  0
   -2.9947    1.4967   -1.3537 H   0  0  0  0  0  0  0  0  0  0  0  0
   -4.3939    2.0483   -0.3011 H   0  0  0  0  0  0  0  0  0  0  0  0
   -4.0751   -0.2024    2.2909 H   0  0  0  0  0  0  0  0  0  0  0  0
   -5.0318    1.0396    1.4598 H   0  0  0  0  0  0  0  0  0  0  0  0
   -1.5872    0.6741    2.9017 H   0  0  0  0  0  0  0  0  0  0  0  0
   -0.5076    2.4602    4.0919 H   0  0  0  0  0  0  0  0  0  0  0  0
   -3.8074    5.0535    3.3195 H   0  0  0  0  0  0  0  0  0  0  0  0
   -4.9065    3.2880    2.1266 H   0  0  0  0  0  0  0  0  0  0  0  0
   -2.2472    5.6382    4.9982 H   0  0  0  0  0  0  0  0  0  0  0  0
   -1.0719    3.6593    6.1510 H   0  0  0  0  0  0  0  0  0  0  0  0
   -0.2317    5.2652    6.3292 H   0  0  0  0  0  0  0  0  0  0  0  0
    0.3989    4.0696    5.1724 H   0  0  0  0  0  0  0  0  0  0  0  0
    1.2695    6.4527    3.0750 H   0  0  0  0  0  0  0  0  0  0  0  0
  1  2  1  0
  2  3  1  0
  2  4  1  0
  4  5  1  0
  5  6  2  0
  6  7  1  0
  7  8  2  0
  8  9  1  0
  9 10  2  0
  8 11  1  0
 11 12  1  0
 11 13  1  0
 13 14  2  0
 13 15  1  0
 10  5  1  0
  1 16  1  0
  1 17  1  0
  1 18  1  0
  2 19  1  0
  3 20  1  0
  3 21  1  0
  3 22  1  0
  4 23  1  0
  4 24  1  0
  6 25  1  0
  7 26  1  0
  9 27  1  0
 10 28  1  0
 11 29  1  1
 12 30  1  0
 12 31  1  0
 12 32  1  0
 15 33  1  0
M  END
>  <gfn_energy_norm>  (32) 
-0.494185

$$$$

     RDKit          3D

 33 33  0  0  0  0  0  0  0  0999 V2000
   -3.3997   -1.0951    0.0711 C   0  0  0  0  0  0  0  0  0  0  0  0
   -3.3005    0.3626    0.4063 C   0  0  0  0  0  0  0  0  0  0  0  0
   -4.1366    1.1523   -0.5791 C   0  0  0  0  0  0  0  0  0  0  0  0
   -3.7062    0.6880    1.8164 C   0  0  0  0  0  0  0  0  0  0  0  0
   -4.8216    1.6247    1.9145 C   0  0  0  0  0  0  0  0  0  0  0  0
   -4.6219    2.8845    2.4298 C   0  0  0  0  0  0  0  0  0  0  0  0
   -5.6657    3.7822    2.5295 C   0  0  0  0  0  0  0  0  0  0  0  0
   -6.9442    3.4640    2.1223 C   0  0  0  0  0  0  0  0  0  0  0  0
   -7.1192    2.1961    1.6096 C   0  0  0  0  0  0  0  0  0  0  0  0
   -6.0856    1.2922    1.5053 C   0  0  0  0  0  0  0  0  0  0  0  0
   -8.0872    4.3646    2.2007 C   0  0  1  0  0  0  0  0  0  0  0  0
   -8.3672    4.9001    0.7857 C   0  0  0  0  0  0  0  0  0  0  0  0
   -9.3362    3.7395    2.6479 C   0  0  0  0  0  0  0  0  0  0  0  0
  -10.3158    3.7406    1.8629 O   0  0  0  0  0  0  0  0  0  0  0  0
   -9.5247    3.1419    3.8788 O   0  0  0  0  0  0  0  0  0  0  0  0
   -2.5449   -1.6973    0.3651 H   0  0  0  0  0  0  0  0  0  0  0  0
   -3.5675   -1.2254   -1.0377 H   0  0  0  0  0  0  0  0  0  0  0  0
   -4.3062   -1.5255    0.5456 H   0  0  0  0  0  0  0  0  0  0  0  0
   -2.2490    0.6933    0.2769 H   0  0  0  0  0  0  0  0  0  0  0  0
   -5.1795    1.1437   -0.2159 H   0  0  0  0  0  0  0  0  0  0  0  0
   -4.0380    0.6348   -1.5582 H   0  0  0  0  0  0  0  0  0  0  0  0
   -3.7085    2.1811   -0.6253 H   0  0  0  0  0  0  0  0  0  0  0  0
   -2.7853    1.0295    2.3456 H   0  0  0  0  0  0  0  0  0  0  0  0
   -4.0010   -0.2629    2.3256 H   0  0  0  0  0  0  0  0  0  0  0  0
   -3.6221    3.1938    2.7707 H   0  0  0  0  0  0  0  0  0  0  0  0
   -5.4430    4.7518    2.9416 H   0  0  0  0  0  0  0  0  0  0  0  0
   -8.1306    1.8910    1.2676 H   0  0  0  0  0  0  0  0  0  0  0  0
   -6.3310    0.3173    1.0860 H   0  0  0  0  0  0  0  0  0  0  0  0
   -7.8405    5.2163    2.8642 H   0  0  0  0  0  0  0  0  0  0  0  0
   -7.4197    5.2376    0.3363 H   0  0  0  0  0  0  0  0  0  0  0  0
   -9.1003    5.7406    0.8251 H   0  0  0  0  0  0  0  0  0  0  0  0
   -8.8311    4.1121    0.1611 H   0  0  0  0  0  0  0  0  0  0  0  0
  -10.2491    3.5579    4.4733 H   0  0  0  0  0  0  0  0  0  0  0  0
  1  2  1  0
  2  3  1  0
  2  4  1  0
  4  5  1  0
  5  6  2  0
  6  7  1  0
  7  8  2  0
  8  9  1  0
  9 10  2  0
  8 11  1  0
 11 12  1  0
 11 13  1  0
 13 14  2  0
 13 15  1  0
 10  5  1  0
  1 16  1  0
  1 17  1  0
  1 18  1  0
  2 19  1  0
  3 20  1  0
  3 21  1  0
  3 22  1  0
  4 23  1  0
  4 24  1  0
  6 25  1  0
  7 26  1  0
  9 27  1  0
 10 28  1  0
 11 29  1  1
 12 30  1  0
 12 31  1  0
 12 32  1  0
 15 33  1  0
M  END
>  <gfn_energy_norm>  (33) 
-0.490292

$$$$

     RDKit          3D

 33 33  0  0  0  0  0  0  0  0999 V2000
   -3.3997   -1.0951    0.0711 C   0  0  0  0  0  0  0  0  0  0  0  0
   -3.3005    0.3626    0.4063 C   0  0  0  0  0  0  0  0  0  0  0  0
   -4.6761    0.8778    0.7745 C   0  0  0  0  0  0  0  0  0  0  0  0
   -2.3170    0.6658    1.5016 C   0  0  0  0  0  0  0  0  0  0  0  0
   -1.7480    2.0086    1.4368 C   0  0  0  0  0  0  0  0  0  0  0  0
   -0.7198    2.2815    0.5643 C   0  0  0  0  0  0  0  0  0  0  0  0
   -0.1707    3.5457    0.4906 C   0  0  0  0  0  0  0  0  0  0  0  0
   -0.6203    4.5845    1.2783 C   0  0  0  0  0  0  0  0  0  0  0  0
   -1.6510    4.2864    2.1443 C   0  0  0  0  0  0  0  0  0  0  0  0
   -2.2066    3.0292    2.2266 C   0  0  0  0  0  0  0  0  0  0  0  0
   -0.0841    5.9392    1.2485 C   0  0  1  0  0  0  0  0  0  0  0  0
   -0.2246    6.5362    2.6596 C   0  0  0  0  0  0  0  0  0  0  0  0
    1.3406    6.0320    0.9133 C   0  0  0  0  0  0  0  0  0  0  0  0
    1.8370    5.1452    0.1764 O   0  0  0  0  0  0  0  0  0  0  0  0
    2.1918    7.0291    1.3483 O   0  0  0  0  0  0  0  0  0  0  0  0
   -2.5449   -1.6973    0.3651 H   0  0  0  0  0  0  0  0  0  0  0  0
   -3.5675   -1.2254   -1.0377 H   0  0  0  0  0  0  0  0  0  0  0  0
   -4.3062   -1.5255    0.5456 H   0  0  0  0  0  0  0  0  0  0  0  0
   -2.9766    0.9207   -0.4967 H   0  0  0  0  0  0  0  0  0  0  0  0
   -4.7675    1.9037    0.3759 H   0  0  0  0  0  0  0  0  0  0  0  0
   -4.7291    0.8620    1.8850 H   0  0  0  0  0  0  0  0  0  0  0  0
   -5.4212    0.1780    0.3283 H   0  0  0  0  0  0  0  0  0  0  0  0
   -1.5529   -0.1469    1.4822 H   0  0  0  0  0  0  0  0  0  0  0  0
   -2.8392    0.5533    2.4839 H   0  0  0  0  0  0  0  0  0  0  0  0
   -0.3205    1.4908   -0.0890 H   0  0  0  0  0  0  0  0  0  0  0  0
    0.6313    3.6934   -0.2128 H   0  0  0  0  0  0  0  0  0  0  0  0
   -2.0489    5.0890    2.8004 H   0  0  0  0  0  0  0  0  0  0  0  0
   -3.0163    2.9001    2.9437 H   0  0  0  0  0  0  0  0  0  0  0  0
   -0.6727    6.5530    0.5391 H   0  0  0  0  0  0  0  0  0  0  0  0
    0.7782    6.7697    3.0514 H   0  0  0  0  0  0  0  0  0  0  0  0
   -0.7492    5.8194    3.3354 H   0  0  0  0  0  0  0  0  0  0  0  0
   -0.8496    7.4498    2.6302 H   0  0  0  0  0  0  0  0  0  0  0  0
    3.1128    7.0605    0.8987 H   0  0  0  0  0  0  0  0  0  0  0  0
  1  2  1  0
  2  3  1  0
  2  4  1  0
  4  5  1  0
  5  6  2  0
  6  7  1  0
  7  8  2  0
  8  9  1  0
  9 10  2  0
  8 11  1  0
 11 12  1  0
 11 13  1  0
 13 14  2  0
 13 15  1  0
 10  5  1  0
  1 16  1  0
  1 17  1  0
  1 18  1  0
  2 19  1  0
  3 20  1  0
  3 21  1  0
  3 22  1  0
  4 23  1  0
  4 24  1  0
  6 25  1  0
  7 26  1  0
  9 27  1  0
 10 28  1  0
 11 29  1  6
 12 30  1  0
 12 31  1  0
 12 32  1  0
 15 33  1  0
M  END
>  <gfn_energy_norm>  (34) 
-0.474625

$$$$

     RDKit          3D

 33 33  0  0  0  0  0  0  0  0999 V2000
   -3.3997   -1.0951    0.0711 C   0  0  0  0  0  0  0  0  0  0  0  0
   -3.3005    0.3626    0.4063 C   0  0  0  0  0  0  0  0  0  0  0  0
   -2.5430    0.5179    1.7085 C   0  0  0  0  0  0  0  0  0  0  0  0
   -2.6606    1.1892   -0.6737 C   0  0  0  0  0  0  0  0  0  0  0  0
   -2.9952    0.7613   -2.0288 C   0  0  0  0  0  0  0  0  0  0  0  0
   -2.0077    0.3112   -2.8742 C   0  0  0  0  0  0  0  0  0  0  0  0
   -2.3071   -0.0971   -4.1584 C   0  0  0  0  0  0  0  0  0  0  0  0
   -3.5950   -0.0740   -4.6506 C   0  0  0  0  0  0  0  0  0  0  0  0
   -4.5668    0.3810   -3.7848 C   0  0  0  0  0  0  0  0  0  0  0  0
   -4.2801    0.7908   -2.5018 C   0  0  0  0  0  0  0  0  0  0  0  0
   -3.9763   -0.4906   -5.9940 C   0  0  1  0  0  0  0  0  0  0  0  0
   -2.7641   -0.2801   -6.9180 C   0  0  0  0  0  0  0  0  0  0  0  0
   -4.3377   -1.9062   -6.1221 C   0  0  0  0  0  0  0  0  0  0  0  0
   -3.4441   -2.7194   -6.4629 O   0  0  0  0  0  0  0  0  0  0  0  0
   -5.5979   -2.4241   -5.8952 O   0  0  0  0  0  0  0  0  0  0  0  0
   -2.5449   -1.6973    0.3651 H   0  0  0  0  0  0  0  0  0  0  0  0
   -3.5675   -1.2254   -1.0377 H   0  0  0  0  0  0  0  0  0  0  0  0
   -4.3062   -1.5255    0.5456 H   0  0  0  0  0  0  0  0  0  0  0  0
   -4.3205    0.7659    0.5748 H   0  0  0  0  0  0  0  0  0  0  0  0
   -3.2412    0.2852    2.5319 H   0  0  0  0  0  0  0  0  0  0  0  0
   -2.2000    1.5748    1.7467 H   0  0  0  0  0  0  0  0  0  0  0  0
   -1.6763   -0.1831    1.6720 H   0  0  0  0  0  0  0  0  0  0  0  0
   -1.5649    1.2002   -0.4641 H   0  0  0  0  0  0  0  0  0  0  0  0
   -2.9934    2.2494   -0.5486 H   0  0  0  0  0  0  0  0  0  0  0  0
   -0.9613    0.2708   -2.5353 H   0  0  0  0  0  0  0  0  0  0  0  0
   -1.4886   -0.4384   -4.7694 H   0  0  0  0  0  0  0  0  0  0  0  0
   -5.6203    0.4190   -4.1336 H   0  0  0  0  0  0  0  0  0  0  0  0
   -5.1212    1.1324   -1.8998 H   0  0  0  0  0  0  0  0  0  0  0  0
   -4.8137    0.1397   -6.3516 H   0  0  0  0  0  0  0  0  0  0  0  0
   -2.9630   -0.7661   -7.8864 H   0  0  0  0  0  0  0  0  0  0  0  0
   -1.8417   -0.7024   -6.4529 H   0  0  0  0  0  0  0  0  0  0  0  0
   -2.5729    0.8012   -7.0612 H   0  0  0  0  0  0  0  0  0  0  0  0
   -6.1587   -1.9441   -5.1836 H   0  0  0  0  0  0  0  0  0  0  0  0
  1  2  1  0
  2  3  1  0
  2  4  1  0
  4  5  1  0
  5  6  2  0
  6  7  1  0
  7  8  2  0
  8  9  1  0
  9 10  2  0
  8 11  1  0
 11 12  1  0
 11 13  1  0
 13 14  2  0
 13 15  1  0
 10  5  1  0
  1 16  1  0
  1 17  1  0
  1 18  1  0
  2 19  1  0
  3 20  1  0
  3 21  1  0
  3 22  1  0
  4 23  1  0
  4 24  1  0
  6 25  1  0
  7 26  1  0
  9 27  1  0
 10 28  1  0
 11 29  1  6
 12 30  1  0
 12 31  1  0
 12 32  1  0
 15 33  1  0
M  END
>  <gfn_energy_norm>  (35) 
-0.467600

$$$$

     RDKit          3D

 33 33  0  0  0  0  0  0  0  0999 V2000
   -3.3997   -1.0951    0.0711 C   0  0  0  0  0  0  0  0  0  0  0  0
   -3.3005    0.3626    0.4063 C   0  0  0  0  0  0  0  0  0  0  0  0
   -2.9373    1.1321   -0.8466 C   0  0  0  0  0  0  0  0  0  0  0  0
   -4.5485    0.9273    1.0246 C   0  0  0  0  0  0  0  0  0  0  0  0
   -4.3485    2.1965    1.7178 C   0  0  0  0  0  0  0  0  0  0  0  0
   -4.3608    3.3777    1.0128 C   0  0  0  0  0  0  0  0  0  0  0  0
   -4.1733    4.5862    1.6529 C   0  0  0  0  0  0  0  0  0  0  0  0
   -3.9669    4.6675    3.0139 C   0  0  0  0  0  0  0  0  0  0  0  0
   -3.9588    3.4707    3.6985 C   0  0  0  0  0  0  0  0  0  0  0  0
   -4.1447    2.2593    3.0707 C   0  0  0  0  0  0  0  0  0  0  0  0
   -3.7629    5.9096    3.7483 C   0  0  1  0  0  0  0  0  0  0  0  0
   -4.0127    5.6254    5.2397 C   0  0  0  0  0  0  0  0  0  0  0  0
   -2.4058    6.4596    3.6662 C   0  0  0  0  0  0  0  0  0  0  0  0
   -1.5740    6.1236    4.5443 O   0  0  0  0  0  0  0  0  0  0  0  0
   -1.9628    7.3286    2.6883 O   0  0  0  0  0  0  0  0  0  0  0  0
   -2.5449   -1.6973    0.3651 H   0  0  0  0  0  0  0  0  0  0  0  0
   -3.5675   -1.2254   -1.0377 H   0  0  0  0  0  0  0  0  0  0  0  0
   -4.3062   -1.5255    0.5456 H   0  0  0  0  0  0  0  0  0  0  0  0
   -2.4724    0.5125    1.1298 H   0  0  0  0  0  0  0  0  0  0  0  0
   -3.5114    0.6984   -1.6844 H   0  0  0  0  0  0  0  0  0  0  0  0
   -1.8422    1.0016   -0.9875 H   0  0  0  0  0  0  0  0  0  0  0  0
   -3.1924    2.2022   -0.6624 H   0  0  0  0  0  0  0  0  0  0  0  0
   -4.9786    0.1260    1.6707 H   0  0  0  0  0  0  0  0  0  0  0  0
   -5.3019    1.0857    0.2137 H   0  0  0  0  0  0  0  0  0  0  0  0
   -4.5212    3.3737   -0.0761 H   0  0  0  0  0  0  0  0  0  0  0  0
   -4.1942    5.4739    1.0437 H   0  0  0  0  0  0  0  0  0  0  0  0
   -3.7964    3.4824    4.7968 H   0  0  0  0  0  0  0  0  0  0  0  0
   -4.1201    1.3733    3.7039 H   0  0  0  0  0  0  0  0  0  0  0  0
   -4.4917    6.6673    3.4006 H   0  0  0  0  0  0  0  0  0  0  0  0
   -3.0892    5.8325    5.8036 H   0  0  0  0  0  0  0  0  0  0  0  0
   -4.3289    4.5653    5.3867 H   0  0  0  0  0  0  0  0  0  0  0  0
   -4.8436    6.2527    5.6169 H   0  0  0  0  0  0  0  0  0  0  0  0
   -0.9565    7.5255    2.6855 H   0  0  0  0  0  0  0  0  0  0  0  0
  1  2  1  0
  2  3  1  0
  2  4  1  0
  4  5  1  0
  5  6  2  0
  6  7  1  0
  7  8  2  0
  8  9  1  0
  9 10  2  0
  8 11  1  0
 11 12  1  0
 11 13  1  0
 13 14  2  0
 13 15  1  0
 10  5  1  0
  1 16  1  0
  1 17  1  0
  1 18  1  0
  2 19  1  0
  3 20  1  0
  3 21  1  0
  3 22  1  0
  4 23  1  0
  4 24  1  0
  6 25  1  0
  7 26  1  0
  9 27  1  0
 10 28  1  0
 11 29  1  6
 12 30  1  0
 12 31  1  0
 12 32  1  0
 15 33  1  0
M  END
>  <gfn_energy_norm>  (36) 
-0.464338

$$$$

     RDKit          3D

 33 33  0  0  0  0  0  0  0  0999 V2000
   -3.3997   -1.0951    0.0711 C   0  0  0  0  0  0  0  0  0  0  0  0
   -3.3005    0.3626    0.4063 C   0  0  0  0  0  0  0  0  0  0  0  0
   -4.5680    0.7922    1.1150 C   0  0  0  0  0  0  0  0  0  0  0  0
   -2.0943    0.7126    1.2319 C   0  0  0  0  0  0  0  0  0  0  0  0
   -1.7334   -0.3005    2.2190 C   0  0  0  0  0  0  0  0  0  0  0  0
   -2.1710   -1.5963    2.0702 C   0  0  0  0  0  0  0  0  0  0  0  0
   -1.8387   -2.5663    2.9944 C   0  0  0  0  0  0  0  0  0  0  0  0
   -1.0614   -2.2872    4.0987 C   0  0  0  0  0  0  0  0  0  0  0  0
   -0.6351   -0.9821    4.2259 C   0  0  0  0  0  0  0  0  0  0  0  0
   -0.9602   -0.0062    3.3105 C   0  0  0  0  0  0  0  0  0  0  0  0
   -0.6761   -3.2642    5.1091 C   0  0  1  0  0  0  0  0  0  0  0  0
    0.8471   -3.4626    5.0207 C   0  0  0  0  0  0  0  0  0  0  0  0
   -0.9489   -2.8616    6.4927 C   0  0  0  0  0  0  0  0  0  0  0  0
   -2.0766   -2.3794    6.7602 O   0  0  0  0  0  0  0  0  0  0  0  0
   -0.0541   -2.9715    7.5391 O   0  0  0  0  0  0  0  0  0  0  0  0
   -2.5449   -1.6973    0.3651 H   0  0  0  0  0  0  0  0  0  0  0  0
   -3.5675   -1.2254   -1.0377 H   0  0  0  0  0  0  0  0  0  0  0  0
   -4.3062   -1.5255    0.5456 H   0  0  0  0  0  0  0  0  0  0  0  0
   -3.2416    0.9476   -0.5350 H   0  0  0  0  0  0  0  0  0  0  0  0
   -5.4130    0.6171    0.4259 H   0  0  0  0  0  0  0  0  0  0  0  0
   -4.4450    1.8722    1.3487 H   0  0  0  0  0  0  0  0  0  0  0  0
   -4.6455    0.1871    2.0487 H   0  0  0  0  0  0  0  0  0  0  0  0
   -2.2866    1.7196    1.6719 H   0  0  0  0  0  0  0  0  0  0  0  0
   -1.2257    0.8553    0.5423 H   0  0  0  0  0  0  0  0  0  0  0  0
   -2.7946   -1.8769    1.2078 H   0  0  0  0  0  0  0  0  0  0  0  0
   -2.2130   -3.5608    2.8198 H   0  0  0  0  0  0  0  0  0  0  0  0
   -0.0063   -0.7063    5.0985 H   0  0  0  0  0  0  0  0  0  0  0  0
   -0.5722    0.9929    3.5046 H   0  0  0  0  0  0  0  0  0  0  0  0
   -1.1764   -4.2293    4.8982 H   0  0  0  0  0  0  0  0  0  0  0  0
    1.0548   -4.4457    4.5692 H   0  0  0  0  0  0  0  0  0  0  0  0
    1.3084   -3.3947    6.0346 H   0  0  0  0  0  0  0  0  0  0  0  0
    1.3055   -2.6560    4.4161 H   0  0  0  0  0  0  0  0  0  0  0  0
   -0.3866   -2.6398    8.4505 H   0  0  0  0  0  0  0  0  0  0  0  0
  1  2  1  0
  2  3  1  0
  2  4  1  0
  4  5  1  0
  5  6  2  0
  6  7  1  0
  7  8  2  0
  8  9  1  0
  9 10  2  0
  8 11  1  0
 11 12  1  0
 11 13  1  0
 13 14  2  0
 13 15  1  0
 10  5  1  0
  1 16  1  0
  1 17  1  0
  1 18  1  0
  2 19  1  0
  3 20  1  0
  3 21  1  0
  3 22  1  0
  4 23  1  0
  4 24  1  0
  6 25  1  0
  7 26  1  0
  9 27  1  0
 10 28  1  0
 11 29  1  6
 12 30  1  0
 12 31  1  0
 12 32  1  0
 15 33  1  0
M  END
>  <gfn_energy_norm>  (37) 
-0.456766

$$$$

     RDKit          3D

 33 33  0  0  0  0  0  0  0  0999 V2000
   -3.3997   -1.0951    0.0711 C   0  0  0  0  0  0  0  0  0  0  0  0
   -3.3005    0.3626    0.4063 C   0  0  0  0  0  0  0  0  0  0  0  0
   -2.7398    0.5090    1.8054 C   0  0  0  0  0  0  0  0  0  0  0  0
   -2.4789    1.1537   -0.5727 C   0  0  0  0  0  0  0  0  0  0  0  0
   -1.6352    0.3366   -1.4397 C   0  0  0  0  0  0  0  0  0  0  0  0
   -1.9034   -1.0030   -1.6009 C   0  0  0  0  0  0  0  0  0  0  0  0
   -1.1155   -1.7895   -2.4170 C   0  0  0  0  0  0  0  0  0  0  0  0
   -0.0341   -1.2771   -3.1023 C   0  0  0  0  0  0  0  0  0  0  0  0
    0.2144    0.0675   -2.9247 C   0  0  0  0  0  0  0  0  0  0  0  0
   -0.5645    0.8618   -2.1133 C   0  0  0  0  0  0  0  0  0  0  0  0
    0.8354   -2.0527   -3.9776 C   0  0  1  0  0  0  0  0  0  0  0  0
    0.4131   -3.5289   -3.8789 C   0  0  0  0  0  0  0  0  0  0  0  0
    0.7490   -1.7046   -5.3996 C   0  0  0  0  0  0  0  0  0  0  0  0
    1.4204   -2.3787   -6.2186 O   0  0  0  0  0  0  0  0  0  0  0  0
   -0.0213   -0.6819   -5.9179 O   0  0  0  0  0  0  0  0  0  0  0  0
   -2.5449   -1.6973    0.3651 H   0  0  0  0  0  0  0  0  0  0  0  0
   -3.5675   -1.2254   -1.0377 H   0  0  0  0  0  0  0  0  0  0  0  0
   -4.3062   -1.5255    0.5456 H   0  0  0  0  0  0  0  0  0  0  0  0
   -4.3196    0.8018    0.4181 H   0  0  0  0  0  0  0  0  0  0  0  0
   -2.8707    1.5624    2.1103 H   0  0  0  0  0  0  0  0  0  0  0  0
   -1.6654    0.2297    1.7427 H   0  0  0  0  0  0  0  0  0  0  0  0
   -3.2996   -0.1985    2.4612 H   0  0  0  0  0  0  0  0  0  0  0  0
   -1.9133    1.9111    0.0198 H   0  0  0  0  0  0  0  0  0  0  0  0
   -3.1745    1.7460   -1.2174 H   0  0  0  0  0  0  0  0  0  0  0  0
   -2.7540   -1.4666   -1.0784 H   0  0  0  0  0  0  0  0  0  0  0  0
   -1.3790   -2.8303   -2.5002 H   0  0  0  0  0  0  0  0  0  0  0  0
    1.0743    0.5283   -3.4550 H   0  0  0  0  0  0  0  0  0  0  0  0
   -0.2819    1.9114   -2.0423 H   0  0  0  0  0  0  0  0  0  0  0  0
    1.8841   -1.9558   -3.6352 H   0  0  0  0  0  0  0  0  0  0  0  0
    0.9888   -4.0132   -3.0741 H   0  0  0  0  0  0  0  0  0  0  0  0
    0.5880   -4.0500   -4.8502 H   0  0  0  0  0  0  0  0  0  0  0  0
   -0.6728   -3.6056   -3.6762 H   0  0  0  0  0  0  0  0  0  0  0  0
   -0.0154    0.1965   -5.3890 H   0  0  0  0  0  0  0  0  0  0  0  0
  1  2  1  0
  2  3  1  0
  2  4  1  0
  4  5  1  0
  5  6  2  0
  6  7  1  0
  7  8  2  0
  8  9  1  0
  9 10  2  0
  8 11  1  0
 11 12  1  0
 11 13  1  0
 13 14  2  0
 13 15  1  0
 10  5  1  0
  1 16  1  0
  1 17  1  0
  1 18  1  0
  2 19  1  0
  3 20  1  0
  3 21  1  0
  3 22  1  0
  4 23  1  0
  4 24  1  0
  6 25  1  0
  7 26  1  0
  9 27  1  0
 10 28  1  0
 11 29  1  1
 12 30  1  0
 12 31  1  0
 12 32  1  0
 15 33  1  0
M  END
>  <gfn_energy_norm>  (38) 
-0.448592

$$$$

     RDKit          3D

 33 33  0  0  0  0  0  0  0  0999 V2000
   -3.3997   -1.0951    0.0711 C   0  0  0  0  0  0  0  0  0  0  0  0
   -3.3005    0.3626    0.4063 C   0  0  0  0  0  0  0  0  0  0  0  0
   -4.6301    1.0263    0.1149 C   0  0  0  0  0  0  0  0  0  0  0  0
   -2.8812    0.6299    1.8246 C   0  0  0  0  0  0  0  0  0  0  0  0
   -2.7889   -0.5676    2.6545 C   0  0  0  0  0  0  0  0  0  0  0  0
   -1.8416   -1.5267    2.3798 C   0  0  0  0  0  0  0  0  0  0  0  0
   -1.7410   -2.6646    3.1545 C   0  0  0  0  0  0  0  0  0  0  0  0
   -2.5750   -2.8930    4.2288 C   0  0  0  0  0  0  0  0  0  0  0  0
   -3.5157   -1.9178    4.4840 C   0  0  0  0  0  0  0  0  0  0  0  0
   -3.6255   -0.7787    3.7181 C   0  0  0  0  0  0  0  0  0  0  0  0
   -2.5204   -4.0714    5.0844 C   0  0  1  0  0  0  0  0  0  0  0  0
   -1.7170   -5.1566    4.3465 C   0  0  0  0  0  0  0  0  0  0  0  0
   -1.8400   -3.8713    6.3680 C   0  0  0  0  0  0  0  0  0  0  0  0
   -1.8842   -4.7968    7.2150 O   0  0  0  0  0  0  0  0  0  0  0  0
   -1.1454   -2.7322    6.7255 O   0  0  0  0  0  0  0  0  0  0  0  0
   -2.5449   -1.6973    0.3651 H   0  0  0  0  0  0  0  0  0  0  0  0
   -3.5675   -1.2254   -1.0377 H   0  0  0  0  0  0  0  0  0  0  0  0
   -4.3062   -1.5255    0.5456 H   0  0  0  0  0  0  0  0  0  0  0  0
   -2.5491    0.8369   -0.2587 H   0  0  0  0  0  0  0  0  0  0  0  0
   -5.1840    1.0995    1.0675 H   0  0  0  0  0  0  0  0  0  0  0  0
   -5.1532    0.3714   -0.6156 H   0  0  0  0  0  0  0  0  0  0  0  0
   -4.4102    2.0254   -0.3294 H   0  0  0  0  0  0  0  0  0  0  0  0
   -3.5793    1.4018    2.2266 H   0  0  0  0  0  0  0  0  0  0  0  0
   -1.8778    1.1229    1.8076 H   0  0  0  0  0  0  0  0  0  0  0  0
   -1.1487   -1.3977    1.5344 H   0  0  0  0  0  0  0  0  0  0  0  0
   -0.9785   -3.3763    2.8865 H   0  0  0  0  0  0  0  0  0  0  0  0
   -4.2114   -2.0547    5.3385 H   0  0  0  0  0  0  0  0  0  0  0  0
   -4.4025   -0.0714    4.0051 H   0  0  0  0  0  0  0  0  0  0  0  0
   -3.5474   -4.4448    5.2633 H   0  0  0  0  0  0  0  0  0  0  0  0
   -2.4004   -5.7329    3.7028 H   0  0  0  0  0  0  0  0  0  0  0  0
   -1.2098   -5.8305    5.0774 H   0  0  0  0  0  0  0  0  0  0  0  0
   -0.9136   -4.6949    3.7402 H   0  0  0  0  0  0  0  0  0  0  0  0
   -1.5150   -2.2153    7.5302 H   0  0  0  0  0  0  0  0  0  0  0  0
  1  2  1  0
  2  3  1  0
  2  4  1  0
  4  5  1  0
  5  6  2  0
  6  7  1  0
  7  8  2  0
  8  9  1  0
  9 10  2  0
  8 11  1  0
 11 12  1  0
 11 13  1  0
 13 14  2  0
 13 15  1  0
 10  5  1  0
  1 16  1  0
  1 17  1  0
  1 18  1  0
  2 19  1  0
  3 20  1  0
  3 21  1  0
  3 22  1  0
  4 23  1  0
  4 24  1  0
  6 25  1  0
  7 26  1  0
  9 27  1  0
 10 28  1  0
 11 29  1  1
 12 30  1  0
 12 31  1  0
 12 32  1  0
 15 33  1  0
M  END
>  <gfn_energy_norm>  (39) 
-0.442994

$$$$

     RDKit          3D

 33 33  0  0  0  0  0  0  0  0999 V2000
   -3.3997   -1.0951    0.0711 C   0  0  0  0  0  0  0  0  0  0  0  0
   -3.3005    0.3626    0.4063 C   0  0  0  0  0  0  0  0  0  0  0  0
   -2.0883    0.9462   -0.2892 C   0  0  0  0  0  0  0  0  0  0  0  0
   -4.5333    1.1486    0.0578 C   0  0  0  0  0  0  0  0  0  0  0  0
   -5.6676    0.3266   -0.3533 C   0  0  0  0  0  0  0  0  0  0  0  0
   -6.9529    0.7768   -0.1588 C   0  0  0  0  0  0  0  0  0  0  0  0
   -8.0364    0.0121   -0.5417 C   0  0  0  0  0  0  0  0  0  0  0  0
   -7.8852   -1.2255   -1.1308 C   0  0  0  0  0  0  0  0  0  0  0  0
   -6.5880   -1.6549   -1.3151 C   0  0  0  0  0  0  0  0  0  0  0  0
   -5.4995   -0.9008   -0.9372 C   0  0  0  0  0  0  0  0  0  0  0  0
   -8.9858   -2.0804   -1.5570 C   0  0  1  0  0  0  0  0  0  0  0  0
   -8.3865   -3.3061   -2.2682 C   0  0  0  0  0  0  0  0  0  0  0  0
   -9.8120   -2.6121   -0.4682 C   0  0  0  0  0  0  0  0  0  0  0  0
   -9.8232   -3.8535   -0.2822 O   0  0  0  0  0  0  0  0  0  0  0  0
  -10.5889   -1.8478    0.3804 O   0  0  0  0  0  0  0  0  0  0  0  0
   -2.5449   -1.6973    0.3651 H   0  0  0  0  0  0  0  0  0  0  0  0
   -3.5675   -1.2254   -1.0377 H   0  0  0  0  0  0  0  0  0  0  0  0
   -4.3062   -1.5255    0.5456 H   0  0  0  0  0  0  0  0  0  0  0  0
   -3.1320    0.4728    1.4976 H   0  0  0  0  0  0  0  0  0  0  0  0
   -1.5954    1.6356    0.4189 H   0  0  0  0  0  0  0  0  0  0  0  0
   -2.4697    1.4815   -1.1860 H   0  0  0  0  0  0  0  0  0  0  0  0
   -1.4325    0.0927   -0.5814 H   0  0  0  0  0  0  0  0  0  0  0  0
   -4.2282    1.9053   -0.7031 H   0  0  0  0  0  0  0  0  0  0  0  0
   -4.8373    1.7419    0.9555 H   0  0  0  0  0  0  0  0  0  0  0  0
   -7.1341    1.7575    0.3070 H   0  0  0  0  0  0  0  0  0  0  0  0
   -9.0158    0.4218   -0.3617 H   0  0  0  0  0  0  0  0  0  0  0  0
   -6.4128   -2.6452   -1.7856 H   0  0  0  0  0  0  0  0  0  0  0  0
   -4.5177   -1.3324   -1.1277 H   0  0  0  0  0  0  0  0  0  0  0  0
   -9.6258   -1.5280   -2.2723 H   0  0  0  0  0  0  0  0  0  0  0  0
   -9.1891   -4.0351   -2.4634 H   0  0  0  0  0  0  0  0  0  0  0  0
   -7.5860   -3.7671   -1.6420 H   0  0  0  0  0  0  0  0  0  0  0  0
   -7.9027   -3.0020   -3.2167 H   0  0  0  0  0  0  0  0  0  0  0  0
  -11.5089   -1.5729    0.0207 H   0  0  0  0  0  0  0  0  0  0  0  0
  1  2  1  0
  2  3  1  0
  2  4  1  0
  4  5  1  0
  5  6  2  0
  6  7  1  0
  7  8  2  0
  8  9  1  0
  9 10  2  0
  8 11  1  0
 11 12  1  0
 11 13  1  0
 13 14  2  0
 13 15  1  0
 10  5  1  0
  1 16  1  0
  1 17  1  0
  1 18  1  0
  2 19  1  0
  3 20  1  0
  3 21  1  0
  3 22  1  0
  4 23  1  0
  4 24  1  0
  6 25  1  0
  7 26  1  0
  9 27  1  0
 10 28  1  0
 11 29  1  6
 12 30  1  0
 12 31  1  0
 12 32  1  0
 15 33  1  0
M  END
>  <gfn_energy_norm>  (40) 
-0.441967

$$$$

     RDKit          3D

 33 33  0  0  0  0  0  0  0  0999 V2000
   -3.3997   -1.0951    0.0711 C   0  0  0  0  0  0  0  0  0  0  0  0
   -3.3005    0.3626    0.4063 C   0  0  0  0  0  0  0  0  0  0  0  0
   -3.2680    0.5205    1.9121 C   0  0  0  0  0  0  0  0  0  0  0  0
   -2.1170    1.0475   -0.2179 C   0  0  0  0  0  0  0  0  0  0  0  0
   -2.1807    2.5053   -0.1741 C   0  0  0  0  0  0  0  0  0  0  0  0
   -3.2628    3.1655   -0.7088 C   0  0  0  0  0  0  0  0  0  0  0  0
   -3.3385    4.5434   -0.6756 C   0  0  0  0  0  0  0  0  0  0  0  0
   -2.3453    5.3161   -0.1116 C   0  0  0  0  0  0  0  0  0  0  0  0
   -1.2716    4.6318    0.4175 C   0  0  0  0  0  0  0  0  0  0  0  0
   -1.1851    3.2578    0.3901 C   0  0  0  0  0  0  0  0  0  0  0  0
   -2.3652    6.7717   -0.0449 C   0  0  1  0  0  0  0  0  0  0  0  0
   -1.0183    7.2896   -0.5788 C   0  0  0  0  0  0  0  0  0  0  0  0
   -3.3964    7.4134   -0.8669 C   0  0  0  0  0  0  0  0  0  0  0  0
   -3.2264    7.4528   -2.1100 O   0  0  0  0  0  0  0  0  0  0  0  0
   -4.5547    7.9853   -0.3780 O   0  0  0  0  0  0  0  0  0  0  0  0
   -2.5449   -1.6973    0.3651 H   0  0  0  0  0  0  0  0  0  0  0  0
   -3.5675   -1.2254   -1.0377 H   0  0  0  0  0  0  0  0  0  0  0  0
   -4.3062   -1.5255    0.5456 H   0  0  0  0  0  0  0  0  0  0  0  0
   -4.2136    0.8802    0.0460 H   0  0  0  0  0  0  0  0  0  0  0  0
   -4.2252    0.1391    2.3096 H   0  0  0  0  0  0  0  0  0  0  0  0
   -3.1446    1.6075    2.1101 H   0  0  0  0  0  0  0  0  0  0  0  0
   -2.3898   -0.0566    2.2857 H   0  0  0  0  0  0  0  0  0  0  0  0
   -2.0123    0.6335   -1.2485 H   0  0  0  0  0  0  0  0  0  0  0  0
   -1.1954    0.7203    0.3243 H   0  0  0  0  0  0  0  0  0  0  0  0
   -4.0857    2.6001   -1.1721 H   0  0  0  0  0  0  0  0  0  0  0  0
   -4.2118    4.9986   -1.1112 H   0  0  0  0  0  0  0  0  0  0  0  0
   -0.4451    5.2087    0.8833 H   0  0  0  0  0  0  0  0  0  0  0  0
   -0.2945    2.8164    0.8356 H   0  0  0  0  0  0  0  0  0  0  0  0
   -2.4798    7.0908    1.0094 H   0  0  0  0  0  0  0  0  0  0  0  0
   -0.9224    7.0106   -1.6402 H   0  0  0  0  0  0  0  0  0  0  0  0
   -0.1743    6.8626    0.0136 H   0  0  0  0  0  0  0  0  0  0  0  0
   -0.9553    8.3889   -0.4618 H   0  0  0  0  0  0  0  0  0  0  0  0
   -5.4253    7.6981   -0.8371 H   0  0  0  0  0  0  0  0  0  0  0  0
  1  2  1  0
  2  3  1  0
  2  4  1  0
  4  5  1  0
  5  6  2  0
  6  7  1  0
  7  8  2  0
  8  9  1  0
  9 10  2  0
  8 11  1  0
 11 12  1  0
 11 13  1  0
 13 14  2  0
 13 15  1  0
 10  5  1  0
  1 16  1  0
  1 17  1  0
  1 18  1  0
  2 19  1  0
  3 20  1  0
  3 21  1  0
  3 22  1  0
  4 23  1  0
  4 24  1  0
  6 25  1  0
  7 26  1  0
  9 27  1  0
 10 28  1  0
 11 29  1  1
 12 30  1  0
 12 31  1  0
 12 32  1  0
 15 33  1  0
M  END
>  <gfn_energy_norm>  (41) 
-0.430863

$$$$

     RDKit          3D

 33 33  0  0  0  0  0  0  0  0999 V2000
   -3.3997   -1.0951    0.0711 C   0  0  0  0  0  0  0  0  0  0  0  0
   -3.3005    0.3626    0.4063 C   0  0  0  0  0  0  0  0  0  0  0  0
   -1.8389    0.7455    0.5101 C   0  0  0  0  0  0  0  0  0  0  0  0
   -4.0082    1.2576   -0.5721 C   0  0  0  0  0  0  0  0  0  0  0  0
   -3.4382    1.2401   -1.9159 C   0  0  0  0  0  0  0  0  0  0  0  0
   -2.9867    2.4060   -2.4897 C   0  0  0  0  0  0  0  0  0  0  0  0
   -2.4451    2.4067   -3.7594 C   0  0  0  0  0  0  0  0  0  0  0  0
   -2.3315    1.2528   -4.5057 C   0  0  0  0  0  0  0  0  0  0  0  0
   -2.7908    0.0975   -3.9094 C   0  0  0  0  0  0  0  0  0  0  0  0
   -3.3328    0.0846   -2.6436 C   0  0  0  0  0  0  0  0  0  0  0  0
   -1.7704    1.1865   -5.8490 C   0  0  1  0  0  0  0  0  0  0  0  0
   -0.3394    1.7491   -5.7937 C   0  0  0  0  0  0  0  0  0  0  0  0
   -1.6488   -0.1667   -6.4012 C   0  0  0  0  0  0  0  0  0  0  0  0
   -1.6583   -0.3026   -7.6491 O   0  0  0  0  0  0  0  0  0  0  0  0
   -1.5228   -1.3188   -5.6498 O   0  0  0  0  0  0  0  0  0  0  0  0
   -2.5449   -1.6973    0.3651 H   0  0  0  0  0  0  0  0  0  0  0  0
   -3.5675   -1.2254   -1.0377 H   0  0  0  0  0  0  0  0  0  0  0  0
   -4.3062   -1.5255    0.5456 H   0  0  0  0  0  0  0  0  0  0  0  0
   -3.7525    0.5364    1.4048 H   0  0  0  0  0  0  0  0  0  0  0  0
   -1.4510    0.3327    1.4581 H   0  0  0  0  0  0  0  0  0  0  0  0
   -1.8053    1.8568    0.5013 H   0  0  0  0  0  0  0  0  0  0  0  0
   -1.3224    0.3224   -0.3833 H   0  0  0  0  0  0  0  0  0  0  0  0
   -4.0425    2.2735   -0.1123 H   0  0  0  0  0  0  0  0  0  0  0  0
   -5.0753    0.9304   -0.6395 H   0  0  0  0  0  0  0  0  0  0  0  0
   -3.0521    3.3576   -1.9405 H   0  0  0  0  0  0  0  0  0  0  0  0
   -2.1104    3.3525   -4.1508 H   0  0  0  0  0  0  0  0  0  0  0  0
   -2.7216   -0.8588   -4.4694 H   0  0  0  0  0  0  0  0  0  0  0  0
   -3.6654   -0.8813   -2.2656 H   0  0  0  0  0  0  0  0  0  0  0  0
   -2.3759    1.8129   -6.5326 H   0  0  0  0  0  0  0  0  0  0  0  0
    0.1963    1.2836   -4.9511 H   0  0  0  0  0  0  0  0  0  0  0  0
   -0.3612    2.8586   -5.6755 H   0  0  0  0  0  0  0  0  0  0  0  0
    0.1899    1.5482   -6.7454 H   0  0  0  0  0  0  0  0  0  0  0  0
   -0.9422   -2.0591   -6.0575 H   0  0  0  0  0  0  0  0  0  0  0  0
  1  2  1  0
  2  3  1  0
  2  4  1  0
  4  5  1  0
  5  6  2  0
  6  7  1  0
  7  8  2  0
  8  9  1  0
  9 10  2  0
  8 11  1  0
 11 12  1  0
 11 13  1  0
 13 14  2  0
 13 15  1  0
 10  5  1  0
  1 16  1  0
  1 17  1  0
  1 18  1  0
  2 19  1  0
  3 20  1  0
  3 21  1  0
  3 22  1  0
  4 23  1  0
  4 24  1  0
  6 25  1  0
  7 26  1  0
  9 27  1  0
 10 28  1  0
 11 29  1  6
 12 30  1  0
 12 31  1  0
 12 32  1  0
 15 33  1  0
M  END
>  <gfn_energy_norm>  (42) 
-0.415743

$$$$

     RDKit          3D

 33 33  0  0  0  0  0  0  0  0999 V2000
   -3.3997   -1.0951    0.0711 C   0  0  0  0  0  0  0  0  0  0  0  0
   -3.3005    0.3626    0.4063 C   0  0  0  0  0  0  0  0  0  0  0  0
   -4.6189    0.8241    0.9914 C   0  0  0  0  0  0  0  0  0  0  0  0
   -2.1691    0.6931    1.3389 C   0  0  0  0  0  0  0  0  0  0  0  0
   -2.0254    2.1185    1.6198 C   0  0  0  0  0  0  0  0  0  0  0  0
   -2.2831    3.0454    0.6365 C   0  0  0  0  0  0  0  0  0  0  0  0
   -2.1520    4.3968    0.8857 C   0  0  0  0  0  0  0  0  0  0  0  0
   -1.7612    4.8779    2.1175 C   0  0  0  0  0  0  0  0  0  0  0  0
   -1.5087    3.9298    3.0863 C   0  0  0  0  0  0  0  0  0  0  0  0
   -1.6361    2.5793    2.8493 C   0  0  0  0  0  0  0  0  0  0  0  0
   -1.6043    6.2894    2.4441 C   0  0  1  0  0  0  0  0  0  0  0  0
   -2.6356    7.0836    1.6236 C   0  0  0  0  0  0  0  0  0  0  0  0
   -1.8592    6.6304    3.8475 C   0  0  0  0  0  0  0  0  0  0  0  0
   -2.6471    7.5755    4.0960 O   0  0  0  0  0  0  0  0  0  0  0  0
   -1.2954    5.9875    4.9323 O   0  0  0  0  0  0  0  0  0  0  0  0
   -2.5449   -1.6973    0.3651 H   0  0  0  0  0  0  0  0  0  0  0  0
   -3.5675   -1.2254   -1.0377 H   0  0  0  0  0  0  0  0  0  0  0  0
   -4.3062   -1.5255    0.5456 H   0  0  0  0  0  0  0  0  0  0  0  0
   -3.1415    0.9392   -0.5285 H   0  0  0  0  0  0  0  0  0  0  0  0
   -5.2729    1.1195    0.1520 H   0  0  0  0  0  0  0  0  0  0  0  0
   -4.3830    1.6866    1.6521 H   0  0  0  0  0  0  0  0  0  0  0  0
   -5.0356   -0.0276    1.5786 H   0  0  0  0  0  0  0  0  0  0  0  0
   -1.2515    0.2254    0.9102 H   0  0  0  0  0  0  0  0  0  0  0  0
   -2.3444    0.1610    2.3065 H   0  0  0  0  0  0  0  0  0  0  0  0
   -2.5985    2.7192   -0.3662 H   0  0  0  0  0  0  0  0  0  0  0  0
   -2.3687    5.0699    0.0735 H   0  0  0  0  0  0  0  0  0  0  0  0
   -1.1909    4.2663    4.0956 H   0  0  0  0  0  0  0  0  0  0  0  0
   -1.4126    1.9150    3.6831 H   0  0  0  0  0  0  0  0  0  0  0  0
   -0.5870    6.6224    2.1605 H   0  0  0  0  0  0  0  0  0  0  0  0
   -3.5410    7.2321    2.2334 H   0  0  0  0  0  0  0  0  0  0  0  0
   -2.8857    6.5403    0.6814 H   0  0  0  0  0  0  0  0  0  0  0  0
   -2.2130    8.0601    1.3165 H   0  0  0  0  0  0  0  0  0  0  0  0
   -1.0469    5.0029    4.7909 H   0  0  0  0  0  0  0  0  0  0  0  0
  1  2  1  0
  2  3  1  0
  2  4  1  0
  4  5  1  0
  5  6  2  0
  6  7  1  0
  7  8  2  0
  8  9  1  0
  9 10  2  0
  8 11  1  0
 11 12  1  0
 11 13  1  0
 13 14  2  0
 13 15  1  0
 10  5  1  0
  1 16  1  0
  1 17  1  0
  1 18  1  0
  2 19  1  0
  3 20  1  0
  3 21  1  0
  3 22  1  0
  4 23  1  0
  4 24  1  0
  6 25  1  0
  7 26  1  0
  9 27  1  0
 10 28  1  0
 11 29  1  6
 12 30  1  0
 12 31  1  0
 12 32  1  0
 15 33  1  0
M  END
>  <gfn_energy_norm>  (43) 
-0.406495

$$$$

     RDKit          3D

 33 33  0  0  0  0  0  0  0  0999 V2000
   -3.3997   -1.0951    0.0711 C   0  0  0  0  0  0  0  0  0  0  0  0
   -3.3005    0.3626    0.4063 C   0  0  0  0  0  0  0  0  0  0  0  0
   -1.8867    0.8344    0.1373 C   0  0  0  0  0  0  0  0  0  0  0  0
   -4.2887    1.2215   -0.3318 C   0  0  0  0  0  0  0  0  0  0  0  0
   -4.2516    1.0605   -1.7823 C   0  0  0  0  0  0  0  0  0  0  0  0
   -4.8448   -0.0322   -2.3711 C   0  0  0  0  0  0  0  0  0  0  0  0
   -4.8188   -0.1994   -3.7411 C   0  0  0  0  0  0  0  0  0  0  0  0
   -4.2043    0.7096   -4.5763 C   0  0  0  0  0  0  0  0  0  0  0  0
   -3.6171    1.7959   -3.9629 C   0  0  0  0  0  0  0  0  0  0  0  0
   -3.6367    1.9732   -2.5975 C   0  0  0  0  0  0  0  0  0  0  0  0
   -4.1420    0.5911   -6.0275 C   0  0  1  0  0  0  0  0  0  0  0  0
   -5.4444    1.1700   -6.6071 C   0  0  0  0  0  0  0  0  0  0  0  0
   -3.0524    1.3403   -6.6618 C   0  0  0  0  0  0  0  0  0  0  0  0
   -2.2793    0.7245   -7.4356 O   0  0  0  0  0  0  0  0  0  0  0  0
   -2.8046    2.6862   -6.4744 O   0  0  0  0  0  0  0  0  0  0  0  0
   -2.5449   -1.6973    0.3651 H   0  0  0  0  0  0  0  0  0  0  0  0
   -3.5675   -1.2254   -1.0377 H   0  0  0  0  0  0  0  0  0  0  0  0
   -4.3062   -1.5255    0.5456 H   0  0  0  0  0  0  0  0  0  0  0  0
   -3.4861    0.4982    1.4919 H   0  0  0  0  0  0  0  0  0  0  0  0
   -1.4619    1.1828    1.0953 H   0  0  0  0  0  0  0  0  0  0  0  0
   -1.9682    1.6615   -0.6013 H   0  0  0  0  0  0  0  0  0  0  0  0
   -1.3258   -0.0298   -0.2898 H   0  0  0  0  0  0  0  0  0  0  0  0
   -4.1200    2.2707    0.0077 H   0  0  0  0  0  0  0  0  0  0  0  0
   -5.3160    0.9601    0.0238 H   0  0  0  0  0  0  0  0  0  0  0  0
   -5.3502   -0.7905   -1.7538 H   0  0  0  0  0  0  0  0  0  0  0  0
   -5.3015   -1.0760   -4.1388 H   0  0  0  0  0  0  0  0  0  0  0  0
   -3.1091    2.5569   -4.5920 H   0  0  0  0  0  0  0  0  0  0  0  0
   -3.1432    2.8657   -2.2148 H   0  0  0  0  0  0  0  0  0  0  0  0
   -4.0689   -0.4779   -6.3071 H   0  0  0  0  0  0  0  0  0  0  0  0
   -6.2238    1.1482   -5.8288 H   0  0  0  0  0  0  0  0  0  0  0  0
   -5.7687    0.5829   -7.4991 H   0  0  0  0  0  0  0  0  0  0  0  0
   -5.2809    2.2068   -6.9601 H   0  0  0  0  0  0  0  0  0  0  0  0
   -2.1635    3.1220   -7.1456 H   0  0  0  0  0  0  0  0  0  0  0  0
  1  2  1  0
  2  3  1  0
  2  4  1  0
  4  5  1  0
  5  6  2  0
  6  7  1  0
  7  8  2  0
  8  9  1  0
  9 10  2  0
  8 11  1  0
 11 12  1  0
 11 13  1  0
 13 14  2  0
 13 15  1  0
 10  5  1  0
  1 16  1  0
  1 17  1  0
  1 18  1  0
  2 19  1  0
  3 20  1  0
  3 21  1  0
  3 22  1  0
  4 23  1  0
  4 24  1  0
  6 25  1  0
  7 26  1  0
  9 27  1  0
 10 28  1  0
 11 29  1  1
 12 30  1  0
 12 31  1  0
 12 32  1  0
 15 33  1  0
M  END
>  <gfn_energy_norm>  (44) 
-0.404588

$$$$

     RDKit          3D

 33 33  0  0  0  0  0  0  0  0999 V2000
   -3.3997   -1.0951    0.0711 C   0  0  0  0  0  0  0  0  0  0  0  0
   -3.3005    0.3626    0.4063 C   0  0  0  0  0  0  0  0  0  0  0  0
   -4.6831    0.8883    0.7310 C   0  0  0  0  0  0  0  0  0  0  0  0
   -2.3490    0.6612    1.5308 C   0  0  0  0  0  0  0  0  0  0  0  0
   -2.2578    2.0772    1.8741 C   0  0  0  0  0  0  0  0  0  0  0  0
   -1.8479    2.4580    3.1309 C   0  0  0  0  0  0  0  0  0  0  0  0
   -1.7563    3.7925    3.4716 C   0  0  0  0  0  0  0  0  0  0  0  0
   -2.0673    4.7971    2.5796 C   0  0  0  0  0  0  0  0  0  0  0  0
   -2.4755    4.3906    1.3269 C   0  0  0  0  0  0  0  0  0  0  0  0
   -2.5707    3.0625    0.9757 C   0  0  0  0  0  0  0  0  0  0  0  0
   -1.9915    6.2218    2.8766 C   0  0  1  0  0  0  0  0  0  0  0  0
   -0.5602    6.5327    3.3479 C   0  0  0  0  0  0  0  0  0  0  0  0
   -2.2381    7.1050    1.7321 C   0  0  0  0  0  0  0  0  0  0  0  0
   -1.9702    6.6774    0.5827 O   0  0  0  0  0  0  0  0  0  0  0  0
   -2.7478    8.3859    1.8173 O   0  0  0  0  0  0  0  0  0  0  0  0
   -2.5449   -1.6973    0.3651 H   0  0  0  0  0  0  0  0  0  0  0  0
   -3.5675   -1.2254   -1.0377 H   0  0  0  0  0  0  0  0  0  0  0  0
   -4.3062   -1.5255    0.5456 H   0  0  0  0  0  0  0  0  0  0  0  0
   -2.9450    0.9164   -0.4874 H   0  0  0  0  0  0  0  0  0  0  0  0
   -5.1862    1.1204   -0.2244 H   0  0  0  0  0  0  0  0  0  0  0  0
   -4.5338    1.8004    1.3491 H   0  0  0  0  0  0  0  0  0  0  0  0
   -5.2107    0.0944    1.3100 H   0  0  0  0  0  0  0  0  0  0  0  0
   -1.3703    0.2023    1.2548 H   0  0  0  0  0  0  0  0  0  0  0  0
   -2.6896    0.1020    2.4372 H   0  0  0  0  0  0  0  0  0  0  0  0
   -1.5867    1.6992    3.8842 H   0  0  0  0  0  0  0  0  0  0  0  0
   -1.4291    4.0236    4.4712 H   0  0  0  0  0  0  0  0  0  0  0  0
   -2.7374    5.1616    0.5720 H   0  0  0  0  0  0  0  0  0  0  0  0
   -2.9032    2.8494   -0.0394 H   0  0  0  0  0  0  0  0  0  0  0  0
   -2.6990    6.4662    3.6928 H   0  0  0  0  0  0  0  0  0  0  0  0
   -0.1223    5.6227    3.7880 H   0  0  0  0  0  0  0  0  0  0  0  0
   -0.5674    7.3616    4.0950 H   0  0  0  0  0  0  0  0  0  0  0  0
    0.0563    6.8853    2.4983 H   0  0  0  0  0  0  0  0  0  0  0  0
   -2.0912    9.1105    2.1260 H   0  0  0  0  0  0  0  0  0  0  0  0
  1  2  1  0
  2  3  1  0
  2  4  1  0
  4  5  1  0
  5  6  2  0
  6  7  1  0
  7  8  2  0
  8  9  1  0
  9 10  2  0
  8 11  1  0
 11 12  1  0
 11 13  1  0
 13 14  2  0
 13 15  1  0
 10  5  1  0
  1 16  1  0
  1 17  1  0
  1 18  1  0
  2 19  1  0
  3 20  1  0
  3 21  1  0
  3 22  1  0
  4 23  1  0
  4 24  1  0
  6 25  1  0
  7 26  1  0
  9 27  1  0
 10 28  1  0
 11 29  1  1
 12 30  1  0
 12 31  1  0
 12 32  1  0
 15 33  1  0
M  END
>  <gfn_energy_norm>  (45) 
-0.395704

$$$$

     RDKit          3D

 33 33  0  0  0  0  0  0  0  0999 V2000
   -3.3997   -1.0951    0.0711 C   0  0  0  0  0  0  0  0  0  0  0  0
   -3.3005    0.3626    0.4063 C   0  0  0  0  0  0  0  0  0  0  0  0
   -4.3864    0.7140    1.4016 C   0  0  0  0  0  0  0  0  0  0  0  0
   -1.9539    0.7715    0.9341 C   0  0  0  0  0  0  0  0  0  0  0  0
   -1.1622    1.5636   -0.0024 C   0  0  0  0  0  0  0  0  0  0  0  0
    0.2103    1.4707    0.0029 C   0  0  0  0  0  0  0  0  0  0  0  0
    0.9735    2.2127   -0.8759 C   0  0  0  0  0  0  0  0  0  0  0  0
    0.4044    3.0730   -1.7911 C   0  0  0  0  0  0  0  0  0  0  0  0
   -0.9723    3.1488   -1.7772 C   0  0  0  0  0  0  0  0  0  0  0  0
   -1.7438    2.4136   -0.9052 C   0  0  0  0  0  0  0  0  0  0  0  0
    1.1528    3.8826   -2.7441 C   0  0  1  0  0  0  0  0  0  0  0  0
    0.4955    3.7182   -4.1255 C   0  0  0  0  0  0  0  0  0  0  0  0
    1.1499    5.3227   -2.4669 C   0  0  0  0  0  0  0  0  0  0  0  0
    1.1024    6.1152   -3.4392 O   0  0  0  0  0  0  0  0  0  0  0  0
    1.1958    5.8853   -1.2062 O   0  0  0  0  0  0  0  0  0  0  0  0
   -2.5449   -1.6973    0.3651 H   0  0  0  0  0  0  0  0  0  0  0  0
   -3.5675   -1.2254   -1.0377 H   0  0  0  0  0  0  0  0  0  0  0  0
   -4.3062   -1.5255    0.5456 H   0  0  0  0  0  0  0  0  0  0  0  0
   -3.4950    0.9589   -0.5093 H   0  0  0  0  0  0  0  0  0  0  0  0
   -4.4708    1.8147    1.4308 H   0  0  0  0  0  0  0  0  0  0  0  0
   -4.0592    0.3007    2.3805 H   0  0  0  0  0  0  0  0  0  0  0  0
   -5.3251    0.2224    1.0534 H   0  0  0  0  0  0  0  0  0  0  0  0
   -1.4452   -0.1609    1.2751 H   0  0  0  0  0  0  0  0  0  0  0  0
   -2.1088    1.3767    1.8615 H   0  0  0  0  0  0  0  0  0  0  0  0
    0.7194    0.8000    0.7117 H   0  0  0  0  0  0  0  0  0  0  0  0
    2.0424    2.0940   -0.8204 H   0  0  0  0  0  0  0  0  0  0  0  0
   -1.4790    3.8275   -2.4951 H   0  0  0  0  0  0  0  0  0  0  0  0
   -2.8225    2.5475   -0.9771 H   0  0  0  0  0  0  0  0  0  0  0  0
    2.1969    3.5175   -2.7979 H   0  0  0  0  0  0  0  0  0  0  0  0
   -0.4935    4.2032   -4.1117 H   0  0  0  0  0  0  0  0  0  0  0  0
    0.3951    2.6370   -4.3830 H   0  0  0  0  0  0  0  0  0  0  0  0
    1.1341    4.1668   -4.9111 H   0  0  0  0  0  0  0  0  0  0  0  0
    0.2892    6.0807   -0.7689 H   0  0  0  0  0  0  0  0  0  0  0  0
  1  2  1  0
  2  3  1  0
  2  4  1  0
  4  5  1  0
  5  6  2  0
  6  7  1  0
  7  8  2  0
  8  9  1  0
  9 10  2  0
  8 11  1  0
 11 12  1  0
 11 13  1  0
 13 14  2  0
 13 15  1  0
 10  5  1  0
  1 16  1  0
  1 17  1  0
  1 18  1  0
  2 19  1  0
  3 20  1  0
  3 21  1  0
  3 22  1  0
  4 23  1  0
  4 24  1  0
  6 25  1  0
  7 26  1  0
  9 27  1  0
 10 28  1  0
 11 29  1  6
 12 30  1  0
 12 31  1  0
 12 32  1  0
 15 33  1  0
M  END
>  <gfn_energy_norm>  (46) 
-0.395165

$$$$

     RDKit          3D

 33 33  0  0  0  0  0  0  0  0999 V2000
   -3.3997   -1.0951    0.0711 C   0  0  0  0  0  0  0  0  0  0  0  0
   -3.3005    0.3626    0.4063 C   0  0  0  0  0  0  0  0  0  0  0  0
   -2.3060    1.0164   -0.5302 C   0  0  0  0  0  0  0  0  0  0  0  0
   -4.6176    1.0851    0.3590 C   0  0  0  0  0  0  0  0  0  0  0  0
   -5.7635    0.2187    0.0991 C   0  0  0  0  0  0  0  0  0  0  0  0
   -5.8841   -0.4217   -1.1124 C   0  0  0  0  0  0  0  0  0  0  0  0
   -6.9613   -1.2443   -1.3742 C   0  0  0  0  0  0  0  0  0  0  0  0
   -7.9570   -1.4617   -0.4453 C   0  0  0  0  0  0  0  0  0  0  0  0
   -7.8139   -0.8092    0.7609 C   0  0  0  0  0  0  0  0  0  0  0  0
   -6.7439    0.0137    1.0332 C   0  0  0  0  0  0  0  0  0  0  0  0
   -9.1177   -2.3165   -0.6594 C   0  0  1  0  0  0  0  0  0  0  0  0
  -10.3714   -1.4245   -0.6533 C   0  0  0  0  0  0  0  0  0  0  0  0
   -9.1347   -3.0242   -1.9438 C   0  0  0  0  0  0  0  0  0  0  0  0
   -8.1941   -3.8152   -2.1993 O   0  0  0  0  0  0  0  0  0  0  0  0
  -10.1146   -2.8892   -2.9079 O   0  0  0  0  0  0  0  0  0  0  0  0
   -2.5449   -1.6973    0.3651 H   0  0  0  0  0  0  0  0  0  0  0  0
   -3.5675   -1.2254   -1.0377 H   0  0  0  0  0  0  0  0  0  0  0  0
   -4.3062   -1.5255    0.5456 H   0  0  0  0  0  0  0  0  0  0  0  0
   -2.8970    0.4714    1.4344 H   0  0  0  0  0  0  0  0  0  0  0  0
   -2.6751    2.0328   -0.7545 H   0  0  0  0  0  0  0  0  0  0  0  0
   -2.2708    0.3813   -1.4421 H   0  0  0  0  0  0  0  0  0  0  0  0
   -1.3193    1.0252   -0.0103 H   0  0  0  0  0  0  0  0  0  0  0  0
   -4.5042    1.9131   -0.3800 H   0  0  0  0  0  0  0  0  0  0  0  0
   -4.7766    1.5908    1.3435 H   0  0  0  0  0  0  0  0  0  0  0  0
   -5.1192   -0.2854   -1.8920 H   0  0  0  0  0  0  0  0  0  0  0  0
   -6.9964   -1.7158   -2.3417 H   0  0  0  0  0  0  0  0  0  0  0  0
   -8.5894   -0.9515    1.5426 H   0  0  0  0  0  0  0  0  0  0  0  0
   -6.7265    0.4811    2.0169 H   0  0  0  0  0  0  0  0  0  0  0  0
   -9.1941   -3.0483    0.1682 H   0  0  0  0  0  0  0  0  0  0  0  0
  -10.3408   -0.7695    0.2319 H   0  0  0  0  0  0  0  0  0  0  0  0
  -11.2951   -2.0508   -0.6422 H   0  0  0  0  0  0  0  0  0  0  0  0
  -10.4173   -0.8194   -1.5795 H   0  0  0  0  0  0  0  0  0  0  0  0
  -11.0639   -3.1513   -2.6226 H   0  0  0  0  0  0  0  0  0  0  0  0
  1  2  1  0
  2  3  1  0
  2  4  1  0
  4  5  1  0
  5  6  2  0
  6  7  1  0
  7  8  2  0
  8  9  1  0
  9 10  2  0
  8 11  1  0
 11 12  1  0
 11 13  1  0
 13 14  2  0
 13 15  1  0
 10  5  1  0
  1 16  1  0
  1 17  1  0
  1 18  1  0
  2 19  1  0
  3 20  1  0
  3 21  1  0
  3 22  1  0
  4 23  1  0
  4 24  1  0
  6 25  1  0
  7 26  1  0
  9 27  1  0
 10 28  1  0
 11 29  1  1
 12 30  1  0
 12 31  1  0
 12 32  1  0
 15 33  1  0
M  END
>  <gfn_energy_norm>  (47) 
-0.394963

$$$$

     RDKit          3D

 33 33  0  0  0  0  0  0  0  0999 V2000
   -3.3997   -1.0951    0.0711 C   0  0  0  0  0  0  0  0  0  0  0  0
   -3.3005    0.3626    0.4063 C   0  0  0  0  0  0  0  0  0  0  0  0
   -4.4588    1.0957   -0.2375 C   0  0  0  0  0  0  0  0  0  0  0  0
   -3.2589    0.6424    1.8824 C   0  0  0  0  0  0  0  0  0  0  0  0
   -4.0238   -0.3032    2.6899 C   0  0  0  0  0  0  0  0  0  0  0  0
   -5.0571    0.1425    3.4812 C   0  0  0  0  0  0  0  0  0  0  0  0
   -5.7903   -0.7383    4.2506 C   0  0  0  0  0  0  0  0  0  0  0  0
   -5.5260   -2.0917    4.2636 C   0  0  0  0  0  0  0  0  0  0  0  0
   -4.4861   -2.5140    3.4627 C   0  0  0  0  0  0  0  0  0  0  0  0
   -3.7479   -1.6447    2.6910 C   0  0  0  0  0  0  0  0  0  0  0  0
   -6.2613   -3.0721    5.0522 C   0  0  1  0  0  0  0  0  0  0  0  0
   -5.6501   -3.1000    6.4640 C   0  0  0  0  0  0  0  0  0  0  0  0
   -7.6851   -2.7733    5.2369 C   0  0  0  0  0  0  0  0  0  0  0  0
   -8.0618   -1.5811    5.1245 O   0  0  0  0  0  0  0  0  0  0  0  0
   -8.6581   -3.7093    5.5283 O   0  0  0  0  0  0  0  0  0  0  0  0
   -2.5449   -1.6973    0.3651 H   0  0  0  0  0  0  0  0  0  0  0  0
   -3.5675   -1.2254   -1.0377 H   0  0  0  0  0  0  0  0  0  0  0  0
   -4.3062   -1.5255    0.5456 H   0  0  0  0  0  0  0  0  0  0  0  0
   -2.3701    0.7739   -0.0375 H   0  0  0  0  0  0  0  0  0  0  0  0
   -4.1959    1.2746   -1.2951 H   0  0  0  0  0  0  0  0  0  0  0  0
   -4.5767    2.0483    0.3236 H   0  0  0  0  0  0  0  0  0  0  0  0
   -5.3615    0.4504   -0.1247 H   0  0  0  0  0  0  0  0  0  0  0  0
   -3.5723    1.7045    2.0177 H   0  0  0  0  0  0  0  0  0  0  0  0
   -2.1925    0.6068    2.2170 H   0  0  0  0  0  0  0  0  0  0  0  0
   -5.3133    1.2125    3.5106 H   0  0  0  0  0  0  0  0  0  0  0  0
   -6.5857   -0.3255    4.8477 H   0  0  0  0  0  0  0  0  0  0  0  0
   -4.2333   -3.5949    3.4380 H   0  0  0  0  0  0  0  0  0  0  0  0
   -2.9480   -2.0815    2.0944 H   0  0  0  0  0  0  0  0  0  0  0  0
   -6.1491   -4.0735    4.5928 H   0  0  0  0  0  0  0  0  0  0  0  0
   -6.3514   -2.6238    7.1675 H   0  0  0  0  0  0  0  0  0  0  0  0
   -4.6684   -2.5694    6.4741 H   0  0  0  0  0  0  0  0  0  0  0  0
   -5.4428   -4.1431    6.7727 H   0  0  0  0  0  0  0  0  0  0  0  0
   -8.6570   -4.5536    4.9465 H   0  0  0  0  0  0  0  0  0  0  0  0
  1  2  1  0
  2  3  1  0
  2  4  1  0
  4  5  1  0
  5  6  2  0
  6  7  1  0
  7  8  2  0
  8  9  1  0
  9 10  2  0
  8 11  1  0
 11 12  1  0
 11 13  1  0
 13 14  2  0
 13 15  1  0
 10  5  1  0
  1 16  1  0
  1 17  1  0
  1 18  1  0
  2 19  1  0
  3 20  1  0
  3 21  1  0
  3 22  1  0
  4 23  1  0
  4 24  1  0
  6 25  1  0
  7 26  1  0
  9 27  1  0
 10 28  1  0
 11 29  1  6
 12 30  1  0
 12 31  1  0
 12 32  1  0
 15 33  1  0
M  END
>  <gfn_energy_norm>  (48) 
-0.391537

$$$$

     RDKit          3D

 33 33  0  0  0  0  0  0  0  0999 V2000
   -3.3997   -1.0951    0.0711 C   0  0  0  0  0  0  0  0  0  0  0  0
   -3.3005    0.3626    0.4063 C   0  0  0  0  0  0  0  0  0  0  0  0
   -4.6726    0.9912    0.2805 C   0  0  0  0  0  0  0  0  0  0  0  0
   -2.7235    0.6323    1.7676 C   0  0  0  0  0  0  0  0  0  0  0  0
   -1.9881    1.8897    1.8648 C   0  0  0  0  0  0  0  0  0  0  0  0
   -2.6608    3.0886    1.8140 C   0  0  0  0  0  0  0  0  0  0  0  0
   -1.9806    4.2864    1.9045 C   0  0  0  0  0  0  0  0  0  0  0  0
   -0.6102    4.3390    2.0485 C   0  0  0  0  0  0  0  0  0  0  0  0
    0.0414    3.1248    2.0969 C   0  0  0  0  0  0  0  0  0  0  0  0
   -0.6265    1.9239    2.0077 C   0  0  0  0  0  0  0  0  0  0  0  0
    0.1658    5.5684    2.1495 C   0  0  1  0  0  0  0  0  0  0  0  0
    0.6276    5.9556    0.7338 C   0  0  0  0  0  0  0  0  0  0  0  0
   -0.5754    6.7260    2.6607 C   0  0  0  0  0  0  0  0  0  0  0  0
   -0.2325    7.2103    3.7669 O   0  0  0  0  0  0  0  0  0  0  0  0
   -1.6340    7.3348    2.0153 O   0  0  0  0  0  0  0  0  0  0  0  0
   -2.5449   -1.6973    0.3651 H   0  0  0  0  0  0  0  0  0  0  0  0
   -3.5675   -1.2254   -1.0377 H   0  0  0  0  0  0  0  0  0  0  0  0
   -4.3062   -1.5255    0.5456 H   0  0  0  0  0  0  0  0  0  0  0  0
   -2.6461    0.8618   -0.3382 H   0  0  0  0  0  0  0  0  0  0  0  0
   -5.2489    0.3943   -0.4483 H   0  0  0  0  0  0  0  0  0  0  0  0
   -4.5087    2.0309   -0.0776 H   0  0  0  0  0  0  0  0  0  0  0  0
   -5.1327    0.9856    1.2965 H   0  0  0  0  0  0  0  0  0  0  0  0
   -2.1191   -0.2637    2.0443 H   0  0  0  0  0  0  0  0  0  0  0  0
   -3.5627    0.6589    2.5061 H   0  0  0  0  0  0  0  0  0  0  0  0
   -3.7554    3.1077    1.6999 H   0  0  0  0  0  0  0  0  0  0  0  0
   -2.5659    5.1891    1.8579 H   0  0  0  0  0  0  0  0  0  0  0  0
    1.1457    3.1133    2.2121 H   0  0  0  0  0  0  0  0  0  0  0  0
   -0.0170    1.0224    2.0568 H   0  0  0  0  0  0  0  0  0  0  0  0
    1.0575    5.3904    2.7816 H   0  0  0  0  0  0  0  0  0  0  0  0
    0.7973    7.0434    0.6972 H   0  0  0  0  0  0  0  0  0  0  0  0
   -0.1374    5.6554   -0.0213 H   0  0  0  0  0  0  0  0  0  0  0  0
    1.5552    5.4114    0.4696 H   0  0  0  0  0  0  0  0  0  0  0  0
   -1.8113    8.3125    2.2682 H   0  0  0  0  0  0  0  0  0  0  0  0
  1  2  1  0
  2  3  1  0
  2  4  1  0
  4  5  1  0
  5  6  2  0
  6  7  1  0
  7  8  2  0
  8  9  1  0
  9 10  2  0
  8 11  1  0
 11 12  1  0
 11 13  1  0
 13 14  2  0
 13 15  1  0
 10  5  1  0
  1 16  1  0
  1 17  1  0
  1 18  1  0
  2 19  1  0
  3 20  1  0
  3 21  1  0
  3 22  1  0
  4 23  1  0
  4 24  1  0
  6 25  1  0
  7 26  1  0
  9 27  1  0
 10 28  1  0
 11 29  1  1
 12 30  1  0
 12 31  1  0
 12 32  1  0
 15 33  1  0
M  END
>  <gfn_energy_norm>  (49) 
-0.387002

$$$$

     RDKit          3D

 33 33  0  0  0  0  0  0  0  0999 V2000
   -3.3997   -1.0951    0.0711 C   0  0  0  0  0  0  0  0  0  0  0  0
   -3.3005    0.3626    0.4063 C   0  0  0  0  0  0  0  0  0  0  0  0
   -4.5852    1.0509   -0.0052 C   0  0  0  0  0  0  0  0  0  0  0  0
   -3.0029    0.6313    1.8548 C   0  0  0  0  0  0  0  0  0  0  0  0
   -1.6638    0.2273    2.2729 C   0  0  0  0  0  0  0  0  0  0  0  0
   -1.4681   -0.3361    3.5127 C   0  0  0  0  0  0  0  0  0  0  0  0
   -0.2085   -0.7235    3.9234 C   0  0  0  0  0  0  0  0  0  0  0  0
    0.9018   -0.5667    3.1208 C   0  0  0  0  0  0  0  0  0  0  0  0
    0.6804   -0.0000    1.8835 C   0  0  0  0  0  0  0  0  0  0  0  0
   -0.5715    0.3903    1.4630 C   0  0  0  0  0  0  0  0  0  0  0  0
    2.2560   -0.9543    3.4947 C   0  0  1  0  0  0  0  0  0  0  0  0
    3.0838    0.3298    3.6769 C   0  0  0  0  0  0  0  0  0  0  0  0
    2.3615   -1.6834    4.7628 C   0  0  0  0  0  0  0  0  0  0  0  0
    3.1964   -2.6173    4.8440 O   0  0  0  0  0  0  0  0  0  0  0  0
    1.6069   -1.4224    5.8900 O   0  0  0  0  0  0  0  0  0  0  0  0
   -2.5449   -1.6973    0.3651 H   0  0  0  0  0  0  0  0  0  0  0  0
   -3.5675   -1.2254   -1.0377 H   0  0  0  0  0  0  0  0  0  0  0  0
   -4.3062   -1.5255    0.5456 H   0  0  0  0  0  0  0  0  0  0  0  0
   -2.4836    0.8171   -0.1920 H   0  0  0  0  0  0  0  0  0  0  0  0
   -4.3382    1.7707   -0.8054 H   0  0  0  0  0  0  0  0  0  0  0  0
   -4.9707    1.5626    0.9035 H   0  0  0  0  0  0  0  0  0  0  0  0
   -5.2902    0.2571   -0.3469 H   0  0  0  0  0  0  0  0  0  0  0  0
   -3.8205    0.1542    2.4452 H   0  0  0  0  0  0  0  0  0  0  0  0
   -3.1113    1.7290    2.0382 H   0  0  0  0  0  0  0  0  0  0  0  0
   -2.3180   -0.4856    4.1959 H   0  0  0  0  0  0  0  0  0  0  0  0
   -0.1232   -1.1579    4.9050 H   0  0  0  0  0  0  0  0  0  0  0  0
    1.5425    0.1477    1.1995 H   0  0  0  0  0  0  0  0  0  0  0  0
   -0.6370    0.8273    0.4674 H   0  0  0  0  0  0  0  0  0  0  0  0
    2.7043   -1.5578    2.6816 H   0  0  0  0  0  0  0  0  0  0  0  0
    3.6585    0.2557    4.6138 H   0  0  0  0  0  0  0  0  0  0  0  0
    2.4161    1.2238    3.6997 H   0  0  0  0  0  0  0  0  0  0  0  0
    3.7657    0.4731    2.8163 H   0  0  0  0  0  0  0  0  0  0  0  0
    0.6471   -1.7831    5.8807 H   0  0  0  0  0  0  0  0  0  0  0  0
  1  2  1  0
  2  3  1  0
  2  4  1  0
  4  5  1  0
  5  6  2  0
  6  7  1  0
  7  8  2  0
  8  9  1  0
  9 10  2  0
  8 11  1  0
 11 12  1  0
 11 13  1  0
 13 14  2  0
 13 15  1  0
 10  5  1  0
  1 16  1  0
  1 17  1  0
  1 18  1  0
  2 19  1  0
  3 20  1  0
  3 21  1  0
  3 22  1  0
  4 23  1  0
  4 24  1  0
  6 25  1  0
  7 26  1  0
  9 27  1  0
 10 28  1  0
 11 29  1  6
 12 30  1  0
 12 31  1  0
 12 32  1  0
 15 33  1  0
M  END
>  <gfn_energy_norm>  (50) 
-0.386915

$$$$
