
     RDKit          3D

 33 33  0  0  0  0  0  0  0  0999 V2000
   -3.3997   -1.0951    0.0711 C   0  0  0  0  0  0  0  0  0  0  0  0
   -3.3005    0.3626    0.4063 C   0  0  0  0  0  0  0  0  0  0  0  0
   -1.9204    0.6473    0.9611 C   0  0  0  0  0  0  0  0  0  0  0  0
   -3.5965    1.2714   -0.7537 C   0  0  0  0  0  0  0  0  0  0  0  0
   -4.9669    1.7735   -0.7828 C   0  0  0  0  0  0  0  0  0  0  0  0
   -5.7658    1.6650    0.3320 C   0  0  0  0  0  0  0  0  0  0  0  0
   -7.0638    2.1347    0.3211 C   0  0  0  0  0  0  0  0  0  0  0  0
   -7.6164    2.7284   -0.7940 C   0  0  0  0  0  0  0  0  0  0  0  0
   -6.7965    2.8256   -1.8983 C   0  0  0  0  0  0  0  0  0  0  0  0
   -5.5003    2.3607   -1.8992 C   0  0  0  0  0  0  0  0  0  0  0  0
   -8.9775    3.2437   -0.8699 C   0  0  1  0  0  0  0  0  0  0  0  0
   -9.9427    2.0485   -0.7850 C   0  0  0  0  0  0  0  0  0  0  0  0
   -9.3579    4.1453    0.2224 C   0  0  0  0  0  0  0  0  0  0  0  0
  -10.5236    4.0647    0.6812 O   0  0  0  0  0  0  0  0  0  0  0  0
   -8.5268    5.0884    0.7949 O   0  0  0  0  0  0  0  0  0  0  0  0
   -2.5449   -1.6973    0.3651 H   0  0  0  0  0  0  0  0  0  0  0  0
   -3.5675   -1.2254   -1.0377 H   0  0  0  0  0  0  0  0  0  0  0  0
   -4.3062   -1.5255    0.5456 H   0  0  0  0  0  0  0  0  0  0  0  0
   -4.0279    0.5999    1.2100 H   0  0  0  0  0  0  0  0  0  0  0  0
   -2.0470    1.2201    1.8968 H   0  0  0  0  0  0  0  0  0  0  0  0
   -1.3875    1.2396    0.1855 H   0  0  0  0  0  0  0  0  0  0  0  0
   -1.4215   -0.3364    1.1263 H   0  0  0  0  0  0  0  0  0  0  0  0
   -3.3005    0.7206   -1.6777 H   0  0  0  0  0  0  0  0  0  0  0  0
   -2.9033    2.1471   -0.7000 H   0  0  0  0  0  0  0  0  0  0  0  0
   -5.3778    1.1999    1.2510 H   0  0  0  0  0  0  0  0  0  0  0  0
   -7.6361    2.0193    1.2260 H   0  0  0  0  0  0  0  0  0  0  0  0
   -7.1947    3.2959   -2.8219 H   0  0  0  0  0  0  0  0  0  0  0  0
   -4.9380    2.4866   -2.8236 H   0  0  0  0  0  0  0  0  0  0  0  0
   -9.1243    3.7551   -1.8410 H   0  0  0  0  0  0  0  0  0  0  0  0
   -9.4635    1.1678   -1.2413 H   0  0  0  0  0  0  0  0  0  0  0  0
  -10.9010    2.2838   -1.3062 H   0  0  0  0  0  0  0  0  0  0  0  0
  -10.2058    1.8408    0.2704 H   0  0  0  0  0  0  0  0  0  0  0  0
   -8.0612    4.8075    1.6642 H   0  0  0  0  0  0  0  0  0  0  0  0
  1  2  1  0
  2  3  1  0
  2  4  1  0
  4  5  1  0
  5  6  2  0
  6  7  1  0
  7  8  2  0
  8  9  1  0
  9 10  2  0
  8 11  1  0
 11 12  1  0
 11 13  1  0
 13 14  2  0
 13 15  1  0
 10  5  1  0
  1 16  1  0
  1 17  1  0
  1 18  1  0
  2 19  1  0
  3 20  1  0
  3 21  1  0
  3 22  1  0
  4 23  1  0
  4 24  1  0
  6 25  1  0
  7 26  1  0
  9 27  1  0
 10 28  1  0
 11 29  1  6
 12 30  1  0
 12 31  1  0
 12 32  1  0
 15 33  1  0
M  END
$$$$

     RDKit          3D

 33 33  0  0  0  0  0  0  0  0999 V2000
   -3.3997   -1.0951    0.0711 C   0  0  0  0  0  0  0  0  0  0  0  0
   -3.3005    0.3626    0.4063 C   0  0  0  0  0  0  0  0  0  0  0  0
   -1.9666    0.6246    1.0739 C   0  0  0  0  0  0  0  0  0  0  0  0
   -3.4800    1.2692   -0.7790 C   0  0  0  0  0  0  0  0  0  0  0  0
   -3.1831    0.6388   -2.0618 C   0  0  0  0  0  0  0  0  0  0  0  0
   -1.8976    0.2489   -2.3584 C   0  0  0  0  0  0  0  0  0  0  0  0
   -1.6000   -0.3485   -3.5667 C   0  0  0  0  0  0  0  0  0  0  0  0
   -2.5651   -0.5808   -4.5240 C   0  0  0  0  0  0  0  0  0  0  0  0
   -3.8453   -0.1813   -4.2036 C   0  0  0  0  0  0  0  0  0  0  0  0
   -4.1539    0.4154   -3.0017 C   0  0  0  0  0  0  0  0  0  0  0  0
   -2.3164   -1.2060   -5.8167 C   0  0  1  0  0  0  0  0  0  0  0  0
   -1.1435   -0.4663   -6.4835 C   0  0  0  0  0  0  0  0  0  0  0  0
   -1.9183   -2.6161   -5.7541 C   0  0  0  0  0  0  0  0  0  0  0  0
   -0.6950   -2.8916   -5.8118 O   0  0  0  0  0  0  0  0  0  0  0  0
   -2.7916   -3.6796   -5.6353 O   0  0  0  0  0  0  0  0  0  0  0  0
   -2.5449   -1.6973    0.3651 H   0  0  0  0  0  0  0  0  0  0  0  0
   -3.5675   -1.2254   -1.0377 H   0  0  0  0  0  0  0  0  0  0  0  0
   -4.3062   -1.5255    0.5456 H   0  0  0  0  0  0  0  0  0  0  0  0
   -4.0882    0.6190    1.1447 H   0  0  0  0  0  0  0  0  0  0  0  0
   -2.0248    1.6135    1.5621 H   0  0  0  0  0  0  0  0  0  0  0  0
   -1.2037    0.6096    0.2652 H   0  0  0  0  0  0  0  0  0  0  0  0
   -1.7939   -0.2022    1.8023 H   0  0  0  0  0  0  0  0  0  0  0  0
   -2.8753    2.1850   -0.5783 H   0  0  0  0  0  0  0  0  0  0  0  0
   -4.5423    1.6178   -0.7971 H   0  0  0  0  0  0  0  0  0  0  0  0
   -1.0863    0.4093   -1.6321 H   0  0  0  0  0  0  0  0  0  0  0  0
   -0.5747   -0.6300   -3.7369 H   0  0  0  0  0  0  0  0  0  0  0  0
   -4.6587   -0.3464   -4.9412 H   0  0  0  0  0  0  0  0  0  0  0  0
   -5.1962    0.6927   -2.8486 H   0  0  0  0  0  0  0  0  0  0  0  0
   -3.2153   -1.1024   -6.4551 H   0  0  0  0  0  0  0  0  0  0  0  0
   -0.6610    0.1858   -5.7383 H   0  0  0  0  0  0  0  0  0  0  0  0
   -1.5051    0.1354   -7.3511 H   0  0  0  0  0  0  0  0  0  0  0  0
   -0.4133   -1.1920   -6.8914 H   0  0  0  0  0  0  0  0  0  0  0  0
   -3.4460   -3.8118   -6.4136 H   0  0  0  0  0  0  0  0  0  0  0  0
  1  2  1  0
  2  3  1  0
  2  4  1  0
  4  5  1  0
  5  6  2  0
  6  7  1  0
  7  8  2  0
  8  9  1  0
  9 10  2  0
  8 11  1  0
 11 12  1  0
 11 13  1  0
 13 14  2  0
 13 15  1  0
 10  5  1  0
  1 16  1  0
  1 17  1  0
  1 18  1  0
  2 19  1  0
  3 20  1  0
  3 21  1  0
  3 22  1  0
  4 23  1  0
  4 24  1  0
  6 25  1  0
  7 26  1  0
  9 27  1  0
 10 28  1  0
 11 29  1  6
 12 30  1  0
 12 31  1  0
 12 32  1  0
 15 33  1  0
M  END
$$$$

     RDKit          3D

 33 33  0  0  0  0  0  0  0  0999 V2000
   -3.3997   -1.0951    0.0711 C   0  0  0  0  0  0  0  0  0  0  0  0
   -3.3005    0.3626    0.4063 C   0  0  0  0  0  0  0  0  0  0  0  0
   -4.1232    1.1537   -0.5891 C   0  0  0  0  0  0  0  0  0  0  0  0
   -3.7213    0.6901    1.8115 C   0  0  0  0  0  0  0  0  0  0  0  0
   -3.9592    2.1112    2.0464 C   0  0  0  0  0  0  0  0  0  0  0  0
   -5.2426    2.5784    2.2116 C   0  0  0  0  0  0  0  0  0  0  0  0
   -5.4848    3.9189    2.4345 C   0  0  0  0  0  0  0  0  0  0  0  0
   -4.4645    4.8442    2.5017 C   0  0  0  0  0  0  0  0  0  0  0  0
   -3.1876    4.3519    2.3331 C   0  0  0  0  0  0  0  0  0  0  0  0
   -2.9339    3.0170    2.1102 C   0  0  0  0  0  0  0  0  0  0  0  0
   -4.6532    6.2704    2.7338 C   0  0  1  0  0  0  0  0  0  0  0  0
   -6.1207    6.4952    3.1382 C   0  0  0  0  0  0  0  0  0  0  0  0
   -3.8464    6.8307    3.8228 C   0  0  0  0  0  0  0  0  0  0  0  0
   -4.4426    7.3379    4.8042 O   0  0  0  0  0  0  0  0  0  0  0  0
   -2.4657    6.8459    3.8568 O   0  0  0  0  0  0  0  0  0  0  0  0
   -2.5449   -1.6973    0.3651 H   0  0  0  0  0  0  0  0  0  0  0  0
   -3.5675   -1.2254   -1.0377 H   0  0  0  0  0  0  0  0  0  0  0  0
   -4.3062   -1.5255    0.5456 H   0  0  0  0  0  0  0  0  0  0  0  0
   -2.2468    0.6905    0.2886 H   0  0  0  0  0  0  0  0  0  0  0  0
   -3.8443    0.8114   -1.6014 H   0  0  0  0  0  0  0  0  0  0  0  0
   -3.8630    2.2229   -0.4304 H   0  0  0  0  0  0  0  0  0  0  0  0
   -5.1970    0.9641   -0.3546 H   0  0  0  0  0  0  0  0  0  0  0  0
   -2.9547    0.2454    2.4890 H   0  0  0  0  0  0  0  0  0  0  0  0
   -4.6661    0.1350    2.0338 H   0  0  0  0  0  0  0  0  0  0  0  0
   -6.0965    1.8853    2.1679 H   0  0  0  0  0  0  0  0  0  0  0  0
   -6.5116    4.2197    2.5556 H   0  0  0  0  0  0  0  0  0  0  0  0
   -2.3310    5.0570    2.3785 H   0  0  0  0  0  0  0  0  0  0  0  0
   -1.8892    2.7328    1.9904 H   0  0  0  0  0  0  0  0  0  0  0  0
   -4.4499    6.8262    1.7978 H   0  0  0  0  0  0  0  0  0  0  0  0
   -6.4101    5.7304    3.8764 H   0  0  0  0  0  0  0  0  0  0  0  0
   -6.7842    6.4421    2.2423 H   0  0  0  0  0  0  0  0  0  0  0  0
   -6.2517    7.5097    3.5623 H   0  0  0  0  0  0  0  0  0  0  0  0
   -2.0333    6.4508    4.6984 H   0  0  0  0  0  0  0  0  0  0  0  0
  1  2  1  0
  2  3  1  0
  2  4  1  0
  4  5  1  0
  5  6  2  0
  6  7  1  0
  7  8  2  0
  8  9  1  0
  9 10  2  0
  8 11  1  0
 11 12  1  0
 11 13  1  0
 13 14  2  0
 13 15  1  0
 10  5  1  0
  1 16  1  0
  1 17  1  0
  1 18  1  0
  2 19  1  0
  3 20  1  0
  3 21  1  0
  3 22  1  0
  4 23  1  0
  4 24  1  0
  6 25  1  0
  7 26  1  0
  9 27  1  0
 10 28  1  0
 11 29  1  6
 12 30  1  0
 12 31  1  0
 12 32  1  0
 15 33  1  0
M  END
$$$$

     RDKit          3D

 33 33  0  0  0  0  0  0  0  0999 V2000
   -3.3997   -1.0951    0.0711 C   0  0  0  0  0  0  0  0  0  0  0  0
   -3.3005    0.3626    0.4063 C   0  0  0  0  0  0  0  0  0  0  0  0
   -2.0599    0.5918    1.2442 C   0  0  0  0  0  0  0  0  0  0  0  0
   -3.2920    1.2610   -0.7987 C   0  0  0  0  0  0  0  0  0  0  0  0
   -4.1068    2.4633   -0.6513 C   0  0  0  0  0  0  0  0  0  0  0  0
   -4.8128    2.6810    0.5092 C   0  0  0  0  0  0  0  0  0  0  0  0
   -5.5879    3.8126    0.6646 C   0  0  0  0  0  0  0  0  0  0  0  0
   -5.6911    4.7686   -0.3238 C   0  0  0  0  0  0  0  0  0  0  0  0
   -4.9745    4.5282   -1.4770 C   0  0  0  0  0  0  0  0  0  0  0  0
   -4.1982    3.4031   -1.6433 C   0  0  0  0  0  0  0  0  0  0  0  0
   -6.4906    5.9828   -0.2220 C   0  0  1  0  0  0  0  0  0  0  0  0
   -7.6404    5.8803   -1.2393 C   0  0  0  0  0  0  0  0  0  0  0  0
   -7.1264    6.1957    1.0823 C   0  0  0  0  0  0  0  0  0  0  0  0
   -8.3774    6.1203    1.1533 O   0  0  0  0  0  0  0  0  0  0  0  0
   -6.4516    6.4762    2.2544 O   0  0  0  0  0  0  0  0  0  0  0  0
   -2.5449   -1.6973    0.3651 H   0  0  0  0  0  0  0  0  0  0  0  0
   -3.5675   -1.2254   -1.0377 H   0  0  0  0  0  0  0  0  0  0  0  0
   -4.3062   -1.5255    0.5456 H   0  0  0  0  0  0  0  0  0  0  0  0
   -4.1712    0.6508    1.0311 H   0  0  0  0  0  0  0  0  0  0  0  0
   -2.3242    1.3033    2.0463 H   0  0  0  0  0  0  0  0  0  0  0  0
   -1.2924    1.0120    0.5583 H   0  0  0  0  0  0  0  0  0  0  0  0
   -1.7416   -0.4007    1.6411 H   0  0  0  0  0  0  0  0  0  0  0  0
   -3.5777    0.6295   -1.6729 H   0  0  0  0  0  0  0  0  0  0  0  0
   -2.2370    1.5744   -0.9961 H   0  0  0  0  0  0  0  0  0  0  0  0
   -4.7681    1.9516    1.3323 H   0  0  0  0  0  0  0  0  0  0  0  0
   -6.1154    3.9232    1.5968 H   0  0  0  0  0  0  0  0  0  0  0  0
   -5.0243    5.2684   -2.3032 H   0  0  0  0  0  0  0  0  0  0  0  0
   -3.6726    3.3096   -2.5929 H   0  0  0  0  0  0  0  0  0  0  0  0
   -5.8635    6.8593   -0.4764 H   0  0  0  0  0  0  0  0  0  0  0  0
   -7.6272    6.7721   -1.8859 H   0  0  0  0  0  0  0  0  0  0  0  0
   -8.6205    5.7961   -0.7124 H   0  0  0  0  0  0  0  0  0  0  0  0
   -7.5347    4.9612   -1.8478 H   0  0  0  0  0  0  0  0  0  0  0  0
   -6.8882    7.1721    2.8679 H   0  0  0  0  0  0  0  0  0  0  0  0
  1  2  1  0
  2  3  1  0
  2  4  1  0
  4  5  1  0
  5  6  2  0
  6  7  1  0
  7  8  2  0
  8  9  1  0
  9 10  2  0
  8 11  1  0
 11 12  1  0
 11 13  1  0
 13 14  2  0
 13 15  1  0
 10  5  1  0
  1 16  1  0
  1 17  1  0
  1 18  1  0
  2 19  1  0
  3 20  1  0
  3 21  1  0
  3 22  1  0
  4 23  1  0
  4 24  1  0
  6 25  1  0
  7 26  1  0
  9 27  1  0
 10 28  1  0
 11 29  1  6
 12 30  1  0
 12 31  1  0
 12 32  1  0
 15 33  1  0
M  END
$$$$

     RDKit          3D

 33 33  0  0  0  0  0  0  0  0999 V2000
   -3.3997   -1.0951    0.0711 C   0  0  0  0  0  0  0  0  0  0  0  0
   -3.3005    0.3626    0.4063 C   0  0  0  0  0  0  0  0  0  0  0  0
   -3.1753    1.1555   -0.8779 C   0  0  0  0  0  0  0  0  0  0  0  0
   -4.4506    0.8740    1.2277 C   0  0  0  0  0  0  0  0  0  0  0  0
   -5.4619    1.5903    0.4561 C   0  0  0  0  0  0  0  0  0  0  0  0
   -6.4684    2.2711    1.1011 C   0  0  0  0  0  0  0  0  0  0  0  0
   -7.4323    2.9535    0.3865 C   0  0  0  0  0  0  0  0  0  0  0  0
   -7.4335    2.9857   -0.9921 C   0  0  0  0  0  0  0  0  0  0  0  0
   -6.4151    2.2962   -1.6155 C   0  0  0  0  0  0  0  0  0  0  0  0
   -5.4482    1.6121   -0.9132 C   0  0  0  0  0  0  0  0  0  0  0  0
   -8.4205    3.6862   -1.8037 C   0  0  1  0  0  0  0  0  0  0  0  0
   -7.9868    3.5783   -3.2761 C   0  0  0  0  0  0  0  0  0  0  0  0
   -9.7764    3.1306   -1.7428 C   0  0  0  0  0  0  0  0  0  0  0  0
   -9.9108    1.9247   -1.4212 O   0  0  0  0  0  0  0  0  0  0  0  0
  -10.9327    3.8358   -2.0141 O   0  0  0  0  0  0  0  0  0  0  0  0
   -2.5449   -1.6973    0.3651 H   0  0  0  0  0  0  0  0  0  0  0  0
   -3.5675   -1.2254   -1.0377 H   0  0  0  0  0  0  0  0  0  0  0  0
   -4.3062   -1.5255    0.5456 H   0  0  0  0  0  0  0  0  0  0  0  0
   -2.3714    0.5384    0.9873 H   0  0  0  0  0  0  0  0  0  0  0  0
   -3.9630    0.8033   -1.5673 H   0  0  0  0  0  0  0  0  0  0  0  0
   -2.1580    0.9482   -1.2757 H   0  0  0  0  0  0  0  0  0  0  0  0
   -3.2895    2.2329   -0.6132 H   0  0  0  0  0  0  0  0  0  0  0  0
   -4.0107    1.4749    2.0584 H   0  0  0  0  0  0  0  0  0  0  0  0
   -4.9421    0.0018    1.7256 H   0  0  0  0  0  0  0  0  0  0  0  0
   -6.5177    2.2801    2.2006 H   0  0  0  0  0  0  0  0  0  0  0  0
   -8.1926    3.4659    0.9513 H   0  0  0  0  0  0  0  0  0  0  0  0
   -6.3717    2.2915   -2.7250 H   0  0  0  0  0  0  0  0  0  0  0  0
   -4.6882    1.1004   -1.5023 H   0  0  0  0  0  0  0  0  0  0  0  0
   -8.4443    4.7548   -1.5142 H   0  0  0  0  0  0  0  0  0  0  0  0
   -6.8931    3.6946   -3.3368 H   0  0  0  0  0  0  0  0  0  0  0  0
   -8.4959    4.3586   -3.8904 H   0  0  0  0  0  0  0  0  0  0  0  0
   -8.2948    2.6015   -3.6970 H   0  0  0  0  0  0  0  0  0  0  0  0
  -11.5755    3.4024   -2.6852 H   0  0  0  0  0  0  0  0  0  0  0  0
  1  2  1  0
  2  3  1  0
  2  4  1  0
  4  5  1  0
  5  6  2  0
  6  7  1  0
  7  8  2  0
  8  9  1  0
  9 10  2  0
  8 11  1  0
 11 12  1  0
 11 13  1  0
 13 14  2  0
 13 15  1  0
 10  5  1  0
  1 16  1  0
  1 17  1  0
  1 18  1  0
  2 19  1  0
  3 20  1  0
  3 21  1  0
  3 22  1  0
  4 23  1  0
  4 24  1  0
  6 25  1  0
  7 26  1  0
  9 27  1  0
 10 28  1  0
 11 29  1  1
 12 30  1  0
 12 31  1  0
 12 32  1  0
 15 33  1  0
M  END
$$$$

     RDKit          3D

 33 33  0  0  0  0  0  0  0  0999 V2000
   -3.3997   -1.0951    0.0711 C   0  0  0  0  0  0  0  0  0  0  0  0
   -3.3005    0.3626    0.4063 C   0  0  0  0  0  0  0  0  0  0  0  0
   -3.4234    1.1704   -0.8689 C   0  0  0  0  0  0  0  0  0  0  0  0
   -4.3142    0.8213    1.4167 C   0  0  0  0  0  0  0  0  0  0  0  0
   -3.7348    1.2871    2.6730 C   0  0  0  0  0  0  0  0  0  0  0  0
   -4.4002    1.0797    3.8591 C   0  0  0  0  0  0  0  0  0  0  0  0
   -3.8662    1.5138    5.0557 C   0  0  0  0  0  0  0  0  0  0  0  0
   -2.6542    2.1685    5.1199 C   0  0  0  0  0  0  0  0  0  0  0  0
   -2.0066    2.3644    3.9185 C   0  0  0  0  0  0  0  0  0  0  0  0
   -2.5295    1.9359    2.7189 C   0  0  0  0  0  0  0  0  0  0  0  0
   -2.0371    2.6510    6.3488 C   0  0  1  0  0  0  0  0  0  0  0  0
   -0.5229    2.3961    6.2510 C   0  0  0  0  0  0  0  0  0  0  0  0
   -2.1873    4.0895    6.5916 C   0  0  0  0  0  0  0  0  0  0  0  0
   -3.2612    4.4982    7.0971 O   0  0  0  0  0  0  0  0  0  0  0  0
   -1.2305    5.0437    6.3054 O   0  0  0  0  0  0  0  0  0  0  0  0
   -2.5449   -1.6973    0.3651 H   0  0  0  0  0  0  0  0  0  0  0  0
   -3.5675   -1.2254   -1.0377 H   0  0  0  0  0  0  0  0  0  0  0  0
   -4.3062   -1.5255    0.5456 H   0  0  0  0  0  0  0  0  0  0  0  0
   -2.2941    0.5703    0.8255 H   0  0  0  0  0  0  0  0  0  0  0  0
   -2.9043    2.1317   -0.7078 H   0  0  0  0  0  0  0  0  0  0  0  0
   -4.5118    1.3151   -1.0438 H   0  0  0  0  0  0  0  0  0  0  0  0
   -2.9632    0.5680   -1.6870 H   0  0  0  0  0  0  0  0  0  0  0  0
   -5.0446   -0.0128    1.5412 H   0  0  0  0  0  0  0  0  0  0  0  0
   -4.9017    1.6607    0.9690 H   0  0  0  0  0  0  0  0  0  0  0  0
   -5.3717    0.5625    3.8686 H   0  0  0  0  0  0  0  0  0  0  0  0
   -4.4371    1.3203    5.9480 H   0  0  0  0  0  0  0  0  0  0  0  0
   -1.0269    2.8870    3.9167 H   0  0  0  0  0  0  0  0  0  0  0  0
   -1.9372    2.1410    1.8280 H   0  0  0  0  0  0  0  0  0  0  0  0
   -2.4412    2.0853    7.2108 H   0  0  0  0  0  0  0  0  0  0  0  0
   -0.3543    1.4170    5.7750 H   0  0  0  0  0  0  0  0  0  0  0  0
   -0.0573    2.4211    7.2650 H   0  0  0  0  0  0  0  0  0  0  0  0
   -0.0348    3.1990    5.6651 H   0  0  0  0  0  0  0  0  0  0  0  0
   -1.0713    5.7509    7.0305 H   0  0  0  0  0  0  0  0  0  0  0  0
  1  2  1  0
  2  3  1  0
  2  4  1  0
  4  5  1  0
  5  6  2  0
  6  7  1  0
  7  8  2  0
  8  9  1  0
  9 10  2  0
  8 11  1  0
 11 12  1  0
 11 13  1  0
 13 14  2  0
 13 15  1  0
 10  5  1  0
  1 16  1  0
  1 17  1  0
  1 18  1  0
  2 19  1  0
  3 20  1  0
  3 21  1  0
  3 22  1  0
  4 23  1  0
  4 24  1  0
  6 25  1  0
  7 26  1  0
  9 27  1  0
 10 28  1  0
 11 29  1  1
 12 30  1  0
 12 31  1  0
 12 32  1  0
 15 33  1  0
M  END
$$$$

     RDKit          3D

 33 33  0  0  0  0  0  0  0  0999 V2000
   -3.3997   -1.0951    0.0711 C   0  0  0  0  0  0  0  0  0  0  0  0
   -3.3005    0.3626    0.4063 C   0  0  0  0  0  0  0  0  0  0  0  0
   -2.5701    1.0762   -0.7122 C   0  0  0  0  0  0  0  0  0  0  0  0
   -4.6293    1.0156    0.6645 C   0  0  0  0  0  0  0  0  0  0  0  0
   -5.5494    0.9625   -0.4677 C   0  0  0  0  0  0  0  0  0  0  0  0
   -5.3764    1.8090   -1.5383 C   0  0  0  0  0  0  0  0  0  0  0  0
   -6.2374    1.7716   -2.6166 C   0  0  0  0  0  0  0  0  0  0  0  0
   -7.3000    0.8946   -2.6728 C   0  0  0  0  0  0  0  0  0  0  0  0
   -7.4525    0.0567   -1.5885 C   0  0  0  0  0  0  0  0  0  0  0  0
   -6.6001    0.0850   -0.5074 C   0  0  0  0  0  0  0  0  0  0  0  0
   -8.2432    0.8054   -3.7802 C   0  0  1  0  0  0  0  0  0  0  0  0
   -8.6382    2.2368   -4.1833 C   0  0  0  0  0  0  0  0  0  0  0  0
   -7.7117    0.1784   -4.9947 C   0  0  0  0  0  0  0  0  0  0  0  0
   -8.2848   -0.8489   -5.4331 O   0  0  0  0  0  0  0  0  0  0  0  0
   -6.6175    0.6324   -5.7049 O   0  0  0  0  0  0  0  0  0  0  0  0
   -2.5449   -1.6973    0.3651 H   0  0  0  0  0  0  0  0  0  0  0  0
   -3.5675   -1.2254   -1.0377 H   0  0  0  0  0  0  0  0  0  0  0  0
   -4.3062   -1.5255    0.5456 H   0  0  0  0  0  0  0  0  0  0  0  0
   -2.6861    0.4827    1.3226 H   0  0  0  0  0  0  0  0  0  0  0  0
   -2.7830    0.5344   -1.6506 H   0  0  0  0  0  0  0  0  0  0  0  0
   -1.4895    1.0404   -0.4529 H   0  0  0  0  0  0  0  0  0  0  0  0
   -2.9423    2.1274   -0.7317 H   0  0  0  0  0  0  0  0  0  0  0  0
   -4.4154    2.0510    1.0208 H   0  0  0  0  0  0  0  0  0  0  0  0
   -5.1112    0.5009    1.5323 H   0  0  0  0  0  0  0  0  0  0  0  0
   -4.5451    2.5302   -1.5482 H   0  0  0  0  0  0  0  0  0  0  0  0
   -6.0469    2.4604   -3.4222 H   0  0  0  0  0  0  0  0  0  0  0  0
   -8.2935   -0.6684   -1.5854 H   0  0  0  0  0  0  0  0  0  0  0  0
   -6.8095   -0.6192    0.2969 H   0  0  0  0  0  0  0  0  0  0  0  0
   -9.1500    0.2628   -3.4491 H   0  0  0  0  0  0  0  0  0  0  0  0
   -7.8650    2.9358   -3.8267 H   0  0  0  0  0  0  0  0  0  0  0  0
   -9.6323    2.5028   -3.7515 H   0  0  0  0  0  0  0  0  0  0  0  0
   -8.7472    2.3104   -5.2828 H   0  0  0  0  0  0  0  0  0  0  0  0
   -5.7539    0.7578   -5.1666 H   0  0  0  0  0  0  0  0  0  0  0  0
  1  2  1  0
  2  3  1  0
  2  4  1  0
  4  5  1  0
  5  6  2  0
  6  7  1  0
  7  8  2  0
  8  9  1  0
  9 10  2  0
  8 11  1  0
 11 12  1  0
 11 13  1  0
 13 14  2  0
 13 15  1  0
 10  5  1  0
  1 16  1  0
  1 17  1  0
  1 18  1  0
  2 19  1  0
  3 20  1  0
  3 21  1  0
  3 22  1  0
  4 23  1  0
  4 24  1  0
  6 25  1  0
  7 26  1  0
  9 27  1  0
 10 28  1  0
 11 29  1  1
 12 30  1  0
 12 31  1  0
 12 32  1  0
 15 33  1  0
M  END
$$$$

     RDKit          3D

 33 33  0  0  0  0  0  0  0  0999 V2000
   -3.3997   -1.0951    0.0711 C   0  0  0  0  0  0  0  0  0  0  0  0
   -3.3005    0.3626    0.4063 C   0  0  0  0  0  0  0  0  0  0  0  0
   -1.8485    0.7123    0.6574 C   0  0  0  0  0  0  0  0  0  0  0  0
   -3.8825    1.2658   -0.6447 C   0  0  0  0  0  0  0  0  0  0  0  0
   -3.0705    1.3748   -1.8530 C   0  0  0  0  0  0  0  0  0  0  0  0
   -3.1652    0.4182   -2.8372 C   0  0  0  0  0  0  0  0  0  0  0  0
   -2.4046    0.5065   -3.9856 C   0  0  0  0  0  0  0  0  0  0  0  0
   -1.5233    1.5452   -4.2000 C   0  0  0  0  0  0  0  0  0  0  0  0
   -1.4461    2.4910   -3.1997 C   0  0  0  0  0  0  0  0  0  0  0  0
   -2.1998    2.4134   -2.0499 C   0  0  0  0  0  0  0  0  0  0  0  0
   -0.6933    1.6958   -5.3884 C   0  0  1  0  0  0  0  0  0  0  0  0
   -0.5607    3.1994   -5.6870 C   0  0  0  0  0  0  0  0  0  0  0  0
    0.6770    1.1912   -5.2524 C   0  0  0  0  0  0  0  0  0  0  0  0
    0.8734    0.1959   -4.5130 O   0  0  0  0  0  0  0  0  0  0  0  0
    1.7836    1.7291   -5.8800 O   0  0  0  0  0  0  0  0  0  0  0  0
   -2.5449   -1.6973    0.3651 H   0  0  0  0  0  0  0  0  0  0  0  0
   -3.5675   -1.2254   -1.0377 H   0  0  0  0  0  0  0  0  0  0  0  0
   -4.3062   -1.5255    0.5456 H   0  0  0  0  0  0  0  0  0  0  0  0
   -3.8482    0.5550    1.3521 H   0  0  0  0  0  0  0  0  0  0  0  0
   -1.7497    1.8094    0.5794 H   0  0  0  0  0  0  0  0  0  0  0  0
   -1.2605    0.1897   -0.1283 H   0  0  0  0  0  0  0  0  0  0  0  0
   -1.5878    0.3308    1.6725 H   0  0  0  0  0  0  0  0  0  0  0  0
   -4.0859    2.2452   -0.1507 H   0  0  0  0  0  0  0  0  0  0  0  0
   -4.8874    0.8685   -0.9322 H   0  0  0  0  0  0  0  0  0  0  0  0
   -3.8523   -0.4337   -2.7203 H   0  0  0  0  0  0  0  0  0  0  0  0
   -2.5257   -0.2746   -4.7170 H   0  0  0  0  0  0  0  0  0  0  0  0
   -0.7508    3.3477   -3.3245 H   0  0  0  0  0  0  0  0  0  0  0  0
   -2.0630    3.2127   -1.3226 H   0  0  0  0  0  0  0  0  0  0  0  0
   -1.1869    1.2015   -6.2477 H   0  0  0  0  0  0  0  0  0  0  0  0
    0.0876    3.6602   -4.9249 H   0  0  0  0  0  0  0  0  0  0  0  0
   -1.5650    3.6861   -5.6895 H   0  0  0  0  0  0  0  0  0  0  0  0
   -0.1376    3.3547   -6.6985 H   0  0  0  0  0  0  0  0  0  0  0  0
    2.5459    1.0745   -6.0844 H   0  0  0  0  0  0  0  0  0  0  0  0
  1  2  1  0
  2  3  1  0
  2  4  1  0
  4  5  1  0
  5  6  2  0
  6  7  1  0
  7  8  2  0
  8  9  1  0
  9 10  2  0
  8 11  1  0
 11 12  1  0
 11 13  1  0
 13 14  2  0
 13 15  1  0
 10  5  1  0
  1 16  1  0
  1 17  1  0
  1 18  1  0
  2 19  1  0
  3 20  1  0
  3 21  1  0
  3 22  1  0
  4 23  1  0
  4 24  1  0
  6 25  1  0
  7 26  1  0
  9 27  1  0
 10 28  1  0
 11 29  1  6
 12 30  1  0
 12 31  1  0
 12 32  1  0
 15 33  1  0
M  END
$$$$

     RDKit          3D

 33 33  0  0  0  0  0  0  0  0999 V2000
   -3.3997   -1.0951    0.0711 C   0  0  0  0  0  0  0  0  0  0  0  0
   -3.3005    0.3626    0.4063 C   0  0  0  0  0  0  0  0  0  0  0  0
   -2.2795    0.5457    1.5097 C   0  0  0  0  0  0  0  0  0  0  0  0
   -2.9604    1.2322   -0.7716 C   0  0  0  0  0  0  0  0  0  0  0  0
   -1.6977    1.9522   -0.6359 C   0  0  0  0  0  0  0  0  0  0  0  0
   -0.5037    1.2739   -0.7192 C   0  0  0  0  0  0  0  0  0  0  0  0
    0.6989    1.9397   -0.5931 C   0  0  0  0  0  0  0  0  0  0  0  0
    0.7615    3.3007   -0.3801 C   0  0  0  0  0  0  0  0  0  0  0  0
   -0.4479    3.9581   -0.3003 C   0  0  0  0  0  0  0  0  0  0  0  0
   -1.6536    3.3046   -0.4245 C   0  0  0  0  0  0  0  0  0  0  0  0
    1.9965    4.0613   -0.2386 C   0  0  1  0  0  0  0  0  0  0  0  0
    1.9048    5.2904   -1.1597 C   0  0  0  0  0  0  0  0  0  0  0  0
    2.2475    4.5862    1.1076 C   0  0  0  0  0  0  0  0  0  0  0  0
    2.6073    5.7835    1.2213 O   0  0  0  0  0  0  0  0  0  0  0  0
    2.1184    3.8607    2.2758 O   0  0  0  0  0  0  0  0  0  0  0  0
   -2.5449   -1.6973    0.3651 H   0  0  0  0  0  0  0  0  0  0  0  0
   -3.5675   -1.2254   -1.0377 H   0  0  0  0  0  0  0  0  0  0  0  0
   -4.3062   -1.5255    0.5456 H   0  0  0  0  0  0  0  0  0  0  0  0
   -4.2757    0.7095    0.8065 H   0  0  0  0  0  0  0  0  0  0  0  0
   -1.3817    1.0077    1.0622 H   0  0  0  0  0  0  0  0  0  0  0  0
   -2.0641   -0.4697    1.9081 H   0  0  0  0  0  0  0  0  0  0  0  0
   -2.7483    1.1905    2.2897 H   0  0  0  0  0  0  0  0  0  0  0  0
   -3.8395    1.8966   -0.9456 H   0  0  0  0  0  0  0  0  0  0  0  0
   -2.8986    0.5841   -1.6807 H   0  0  0  0  0  0  0  0  0  0  0  0
   -0.4927    0.1864   -0.8883 H   0  0  0  0  0  0  0  0  0  0  0  0
    1.5973    1.3507   -0.6680 H   0  0  0  0  0  0  0  0  0  0  0  0
   -0.4513    5.0553   -0.1296 H   0  0  0  0  0  0  0  0  0  0  0  0
   -2.5505    3.9176   -0.3459 H   0  0  0  0  0  0  0  0  0  0  0  0
    2.8529    3.4364   -0.5586 H   0  0  0  0  0  0  0  0  0  0  0  0
    0.8732    5.6767   -1.1401 H   0  0  0  0  0  0  0  0  0  0  0  0
    2.1991    5.0194   -2.2015 H   0  0  0  0  0  0  0  0  0  0  0  0
    2.6157    6.0725   -0.8293 H   0  0  0  0  0  0  0  0  0  0  0  0
    1.4599    3.0753    2.2457 H   0  0  0  0  0  0  0  0  0  0  0  0
  1  2  1  0
  2  3  1  0
  2  4  1  0
  4  5  1  0
  5  6  2  0
  6  7  1  0
  7  8  2  0
  8  9  1  0
  9 10  2  0
  8 11  1  0
 11 12  1  0
 11 13  1  0
 13 14  2  0
 13 15  1  0
 10  5  1  0
  1 16  1  0
  1 17  1  0
  1 18  1  0
  2 19  1  0
  3 20  1  0
  3 21  1  0
  3 22  1  0
  4 23  1  0
  4 24  1  0
  6 25  1  0
  7 26  1  0
  9 27  1  0
 10 28  1  0
 11 29  1  6
 12 30  1  0
 12 31  1  0
 12 32  1  0
 15 33  1  0
M  END
$$$$

     RDKit          3D

 33 33  0  0  0  0  0  0  0  0999 V2000
   -3.3997   -1.0951    0.0711 C   0  0  0  0  0  0  0  0  0  0  0  0
   -3.3005    0.3626    0.4063 C   0  0  0  0  0  0  0  0  0  0  0  0
   -4.1414    1.1518   -0.5754 C   0  0  0  0  0  0  0  0  0  0  0  0
   -3.7006    0.6872    1.8182 C   0  0  0  0  0  0  0  0  0  0  0  0
   -4.4559   -0.3713    2.4818 C   0  0  0  0  0  0  0  0  0  0  0  0
   -4.8842   -0.2050    3.7785 C   0  0  0  0  0  0  0  0  0  0  0  0
   -5.5994   -1.1959    4.4204 C   0  0  0  0  0  0  0  0  0  0  0  0
   -5.9156   -2.3865    3.8007 C   0  0  0  0  0  0  0  0  0  0  0  0
   -5.4756   -2.5296    2.5019 C   0  0  0  0  0  0  0  0  0  0  0  0
   -4.7615   -1.5482    1.8515 C   0  0  0  0  0  0  0  0  0  0  0  0
   -6.6662   -3.4702    4.4220 C   0  0  1  0  0  0  0  0  0  0  0  0
   -5.9717   -4.7953    4.0625 C   0  0  0  0  0  0  0  0  0  0  0  0
   -6.7147   -3.4269    5.8871 C   0  0  0  0  0  0  0  0  0  0  0  0
   -5.8644   -2.7272    6.4897 O   0  0  0  0  0  0  0  0  0  0  0  0
   -7.6321   -4.1024    6.6681 O   0  0  0  0  0  0  0  0  0  0  0  0
   -2.5449   -1.6973    0.3651 H   0  0  0  0  0  0  0  0  0  0  0  0
   -3.5675   -1.2254   -1.0377 H   0  0  0  0  0  0  0  0  0  0  0  0
   -4.3062   -1.5255    0.5456 H   0  0  0  0  0  0  0  0  0  0  0  0
   -2.2499    0.6944    0.2726 H   0  0  0  0  0  0  0  0  0  0  0  0
   -4.3761    2.1249   -0.1089 H   0  0  0  0  0  0  0  0  0  0  0  0
   -5.0590    0.5502   -0.7554 H   0  0  0  0  0  0  0  0  0  0  0  0
   -3.5435    1.2592   -1.5107 H   0  0  0  0  0  0  0  0  0  0  0  0
   -4.2346    1.6661    1.7844 H   0  0  0  0  0  0  0  0  0  0  0  0
   -2.7724    0.8801    2.4110 H   0  0  0  0  0  0  0  0  0  0  0  0
   -4.6607    0.7251    4.3229 H   0  0  0  0  0  0  0  0  0  0  0  0
   -5.9051   -1.0033    5.4348 H   0  0  0  0  0  0  0  0  0  0  0  0
   -5.7048   -3.4706    1.9588 H   0  0  0  0  0  0  0  0  0  0  0  0
   -4.4615   -1.7619    0.8264 H   0  0  0  0  0  0  0  0  0  0  0  0
   -7.6969   -3.4840    4.0171 H   0  0  0  0  0  0  0  0  0  0  0  0
   -5.1121   -4.5830    3.4071 H   0  0  0  0  0  0  0  0  0  0  0  0
   -6.6873   -5.4850    3.5548 H   0  0  0  0  0  0  0  0  0  0  0  0
   -5.6371   -5.3156    4.9810 H   0  0  0  0  0  0  0  0  0  0  0  0
   -7.4109   -4.1648    7.6674 H   0  0  0  0  0  0  0  0  0  0  0  0
  1  2  1  0
  2  3  1  0
  2  4  1  0
  4  5  1  0
  5  6  2  0
  6  7  1  0
  7  8  2  0
  8  9  1  0
  9 10  2  0
  8 11  1  0
 11 12  1  0
 11 13  1  0
 13 14  2  0
 13 15  1  0
 10  5  1  0
  1 16  1  0
  1 17  1  0
  1 18  1  0
  2 19  1  0
  3 20  1  0
  3 21  1  0
  3 22  1  0
  4 23  1  0
  4 24  1  0
  6 25  1  0
  7 26  1  0
  9 27  1  0
 10 28  1  0
 11 29  1  6
 12 30  1  0
 12 31  1  0
 12 32  1  0
 15 33  1  0
M  END
$$$$

     RDKit          3D

 33 33  0  0  0  0  0  0  0  0999 V2000
   -3.3997   -1.0951    0.0711 C   0  0  0  0  0  0  0  0  0  0  0  0
   -3.3005    0.3626    0.4063 C   0  0  0  0  0  0  0  0  0  0  0  0
   -3.5776    0.5481    1.8835 C   0  0  0  0  0  0  0  0  0  0  0  0
   -1.9795    0.9789    0.0397 C   0  0  0  0  0  0  0  0  0  0  0  0
   -1.8820    2.4035    0.3431 C   0  0  0  0  0  0  0  0  0  0  0  0
   -0.8218    3.1398   -0.1329 C   0  0  0  0  0  0  0  0  0  0  0  0
   -0.7146    4.4877    0.1448 C   0  0  0  0  0  0  0  0  0  0  0  0
   -1.6535    5.1540    0.9037 C   0  0  0  0  0  0  0  0  0  0  0  0
   -2.7063    4.3950    1.3692 C   0  0  0  0  0  0  0  0  0  0  0  0
   -2.8238    3.0500    1.0986 C   0  0  0  0  0  0  0  0  0  0  0  0
   -1.5983    6.5728    1.2321 C   0  0  1  0  0  0  0  0  0  0  0  0
   -3.0429    7.0855    1.3654 C   0  0  0  0  0  0  0  0  0  0  0  0
   -0.9417    6.8866    2.5053 C   0  0  0  0  0  0  0  0  0  0  0  0
   -1.6625    7.1938    3.4861 O   0  0  0  0  0  0  0  0  0  0  0  0
    0.4233    6.8715    2.7158 O   0  0  0  0  0  0  0  0  0  0  0  0
   -2.5449   -1.6973    0.3651 H   0  0  0  0  0  0  0  0  0  0  0  0
   -3.5675   -1.2254   -1.0377 H   0  0  0  0  0  0  0  0  0  0  0  0
   -4.3062   -1.5255    0.5456 H   0  0  0  0  0  0  0  0  0  0  0  0
   -4.0904    0.9153   -0.1434 H   0  0  0  0  0  0  0  0  0  0  0  0
   -4.6696    0.6560    2.0086 H   0  0  0  0  0  0  0  0  0  0  0  0
   -3.0357    1.4692    2.1902 H   0  0  0  0  0  0  0  0  0  0  0  0
   -3.1736   -0.3481    2.4103 H   0  0  0  0  0  0  0  0  0  0  0  0
   -1.7974    0.7350   -1.0337 H   0  0  0  0  0  0  0  0  0  0  0  0
   -1.1742    0.4447    0.6021 H   0  0  0  0  0  0  0  0  0  0  0  0
   -0.0419    2.6606   -0.7441 H   0  0  0  0  0  0  0  0  0  0  0  0
    0.1391    5.0063   -0.2574 H   0  0  0  0  0  0  0  0  0  0  0  0
   -3.4894    4.8852    1.9852 H   0  0  0  0  0  0  0  0  0  0  0  0
   -3.6939    2.5434    1.5142 H   0  0  0  0  0  0  0  0  0  0  0  0
   -1.0971    7.1218    0.4112 H   0  0  0  0  0  0  0  0  0  0  0  0
   -3.3545    7.5319    0.4077 H   0  0  0  0  0  0  0  0  0  0  0  0
   -3.1151    7.8373    2.1870 H   0  0  0  0  0  0  0  0  0  0  0  0
   -3.7214    6.2556    1.6431 H   0  0  0  0  0  0  0  0  0  0  0  0
    0.9678    6.2734    2.0856 H   0  0  0  0  0  0  0  0  0  0  0  0
  1  2  1  0
  2  3  1  0
  2  4  1  0
  4  5  1  0
  5  6  2  0
  6  7  1  0
  7  8  2  0
  8  9  1  0
  9 10  2  0
  8 11  1  0
 11 12  1  0
 11 13  1  0
 13 14  2  0
 13 15  1  0
 10  5  1  0
  1 16  1  0
  1 17  1  0
  1 18  1  0
  2 19  1  0
  3 20  1  0
  3 21  1  0
  3 22  1  0
  4 23  1  0
  4 24  1  0
  6 25  1  0
  7 26  1  0
  9 27  1  0
 10 28  1  0
 11 29  1  6
 12 30  1  0
 12 31  1  0
 12 32  1  0
 15 33  1  0
M  END
$$$$

     RDKit          3D

 33 33  0  0  0  0  0  0  0  0999 V2000
   -3.3997   -1.0951    0.0711 C   0  0  0  0  0  0  0  0  0  0  0  0
   -3.3005    0.3626    0.4063 C   0  0  0  0  0  0  0  0  0  0  0  0
   -2.1258    0.5746    1.3383 C   0  0  0  0  0  0  0  0  0  0  0  0
   -3.1807    1.2533   -0.7984 C   0  0  0  0  0  0  0  0  0  0  0  0
   -1.8107    1.6447   -1.1164 C   0  0  0  0  0  0  0  0  0  0  0  0
   -0.8569    1.6861   -0.1258 C   0  0  0  0  0  0  0  0  0  0  0  0
    0.4429    2.0540   -0.4096 C   0  0  0  0  0  0  0  0  0  0  0  0
    0.8441    2.3938   -1.6844 C   0  0  0  0  0  0  0  0  0  0  0  0
   -0.1294    2.3447   -2.6596 C   0  0  0  0  0  0  0  0  0  0  0  0
   -1.4290    1.9793   -2.3884 C   0  0  0  0  0  0  0  0  0  0  0  0
    2.1983    2.7902   -2.0489 C   0  0  1  0  0  0  0  0  0  0  0  0
    3.0909    2.6275   -0.8063 C   0  0  0  0  0  0  0  0  0  0  0  0
    2.8187    1.9751   -3.0984 C   0  0  0  0  0  0  0  0  0  0  0  0
    2.2090    0.9519   -3.4950 O   0  0  0  0  0  0  0  0  0  0  0  0
    4.0354    2.2453   -3.6938 O   0  0  0  0  0  0  0  0  0  0  0  0
   -2.5449   -1.6973    0.3651 H   0  0  0  0  0  0  0  0  0  0  0  0
   -3.5675   -1.2254   -1.0377 H   0  0  0  0  0  0  0  0  0  0  0  0
   -4.3062   -1.5255    0.5456 H   0  0  0  0  0  0  0  0  0  0  0  0
   -4.2122    0.6701    0.9592 H   0  0  0  0  0  0  0  0  0  0  0  0
   -1.2935   -0.0549    0.9769 H   0  0  0  0  0  0  0  0  0  0  0  0
   -2.4682    0.2628    2.3491 H   0  0  0  0  0  0  0  0  0  0  0  0
   -1.8795    1.6622    1.3171 H   0  0  0  0  0  0  0  0  0  0  0  0
   -3.8665    2.1169   -0.6297 H   0  0  0  0  0  0  0  0  0  0  0  0
   -3.6040    0.7111   -1.6800 H   0  0  0  0  0  0  0  0  0  0  0  0
   -1.1199    1.4251    0.9106 H   0  0  0  0  0  0  0  0  0  0  0  0
    1.1408    2.0662    0.4104 H   0  0  0  0  0  0  0  0  0  0  0  0
    0.1433    2.6093   -3.7030 H   0  0  0  0  0  0  0  0  0  0  0  0
   -2.1195    1.9731   -3.2308 H   0  0  0  0  0  0  0  0  0  0  0  0
    2.2008    3.8542   -2.3557 H   0  0  0  0  0  0  0  0  0  0  0  0
    2.6008    3.1124    0.0529 H   0  0  0  0  0  0  0  0  0  0  0  0
    4.0957    3.0786   -0.9866 H   0  0  0  0  0  0  0  0  0  0  0  0
    3.2652    1.5544   -0.5958 H   0  0  0  0  0  0  0  0  0  0  0  0
    4.4052    3.1908   -3.5499 H   0  0  0  0  0  0  0  0  0  0  0  0
  1  2  1  0
  2  3  1  0
  2  4  1  0
  4  5  1  0
  5  6  2  0
  6  7  1  0
  7  8  2  0
  8  9  1  0
  9 10  2  0
  8 11  1  0
 11 12  1  0
 11 13  1  0
 13 14  2  0
 13 15  1  0
 10  5  1  0
  1 16  1  0
  1 17  1  0
  1 18  1  0
  2 19  1  0
  3 20  1  0
  3 21  1  0
  3 22  1  0
  4 23  1  0
  4 24  1  0
  6 25  1  0
  7 26  1  0
  9 27  1  0
 10 28  1  0
 11 29  1  6
 12 30  1  0
 12 31  1  0
 12 32  1  0
 15 33  1  0
M  END
$$$$

     RDKit          3D

 33 33  0  0  0  0  0  0  0  0999 V2000
   -3.3997   -1.0951    0.0711 C   0  0  0  0  0  0  0  0  0  0  0  0
   -3.3005    0.3626    0.4063 C   0  0  0  0  0  0  0  0  0  0  0  0
   -3.2516    0.5194    1.9118 C   0  0  0  0  0  0  0  0  0  0  0  0
   -2.1259    1.0510   -0.2305 C   0  0  0  0  0  0  0  0  0  0  0  0
   -1.1759    0.1429   -0.8664 C   0  0  0  0  0  0  0  0  0  0  0  0
   -0.8597   -1.0550   -0.2685 C   0  0  0  0  0  0  0  0  0  0  0  0
    0.0364   -1.9249   -0.8565 C   0  0  0  0  0  0  0  0  0  0  0  0
    0.6510   -1.6391   -2.0573 C   0  0  0  0  0  0  0  0  0  0  0  0
    0.3181   -0.4331   -2.6369 C   0  0  0  0  0  0  0  0  0  0  0  0
   -0.5743    0.4425   -2.0597 C   0  0  0  0  0  0  0  0  0  0  0  0
    1.6043   -2.5131   -2.7290 C   0  0  1  0  0  0  0  0  0  0  0  0
    1.9070   -1.9110   -4.1122 C   0  0  0  0  0  0  0  0  0  0  0  0
    2.9007   -2.6455   -2.0563 C   0  0  0  0  0  0  0  0  0  0  0  0
    3.6819   -1.6630   -2.0724 O   0  0  0  0  0  0  0  0  0  0  0  0
    3.3377   -3.7783   -1.3979 O   0  0  0  0  0  0  0  0  0  0  0  0
   -2.5449   -1.6973    0.3651 H   0  0  0  0  0  0  0  0  0  0  0  0
   -3.5675   -1.2254   -1.0377 H   0  0  0  0  0  0  0  0  0  0  0  0
   -4.3062   -1.5255    0.5456 H   0  0  0  0  0  0  0  0  0  0  0  0
   -4.2190    0.8781    0.0566 H   0  0  0  0  0  0  0  0  0  0  0  0
   -2.4329   -0.1189    2.2887 H   0  0  0  0  0  0  0  0  0  0  0  0
   -4.2414    0.1865    2.2932 H   0  0  0  0  0  0  0  0  0  0  0  0
   -3.0833    1.6010    2.1258 H   0  0  0  0  0  0  0  0  0  0  0  0
   -1.6698    1.7008    0.5533 H   0  0  0  0  0  0  0  0  0  0  0  0
   -2.5110    1.7563   -1.0081 H   0  0  0  0  0  0  0  0  0  0  0  0
   -1.3198   -1.3361    0.6911 H   0  0  0  0  0  0  0  0  0  0  0  0
    0.2407   -2.8459   -0.3372 H   0  0  0  0  0  0  0  0  0  0  0  0
    0.7862   -0.1562   -3.6049 H   0  0  0  0  0  0  0  0  0  0  0  0
   -0.7676    1.3683   -2.6002 H   0  0  0  0  0  0  0  0  0  0  0  0
    1.1530   -3.5152   -2.8650 H   0  0  0  0  0  0  0  0  0  0  0  0
    2.6888   -1.1423   -4.0051 H   0  0  0  0  0  0  0  0  0  0  0  0
    0.9833   -1.4676   -4.5547 H   0  0  0  0  0  0  0  0  0  0  0  0
    2.2379   -2.7026   -4.8122 H   0  0  0  0  0  0  0  0  0  0  0  0
    2.6057   -4.3807   -1.0074 H   0  0  0  0  0  0  0  0  0  0  0  0
  1  2  1  0
  2  3  1  0
  2  4  1  0
  4  5  1  0
  5  6  2  0
  6  7  1  0
  7  8  2  0
  8  9  1  0
  9 10  2  0
  8 11  1  0
 11 12  1  0
 11 13  1  0
 13 14  2  0
 13 15  1  0
 10  5  1  0
  1 16  1  0
  1 17  1  0
  1 18  1  0
  2 19  1  0
  3 20  1  0
  3 21  1  0
  3 22  1  0
  4 23  1  0
  4 24  1  0
  6 25  1  0
  7 26  1  0
  9 27  1  0
 10 28  1  0
 11 29  1  6
 12 30  1  0
 12 31  1  0
 12 32  1  0
 15 33  1  0
M  END
$$$$

     RDKit          3D

 33 33  0  0  0  0  0  0  0  0999 V2000
   -3.3997   -1.0951    0.0711 C   0  0  0  0  0  0  0  0  0  0  0  0
   -3.3005    0.3626    0.4063 C   0  0  0  0  0  0  0  0  0  0  0  0
   -2.3538    0.5356    1.5756 C   0  0  0  0  0  0  0  0  0  0  0  0
   -2.8678    1.2207   -0.7494 C   0  0  0  0  0  0  0  0  0  0  0  0
   -2.4578    2.5693   -0.3694 C   0  0  0  0  0  0  0  0  0  0  0  0
   -1.6585    3.3102   -1.2090 C   0  0  0  0  0  0  0  0  0  0  0  0
   -1.2619    4.5868   -0.8648 C   0  0  0  0  0  0  0  0  0  0  0  0
   -1.6428    5.1748    0.3229 C   0  0  0  0  0  0  0  0  0  0  0  0
   -2.4435    4.4127    1.1472 C   0  0  0  0  0  0  0  0  0  0  0  0
   -2.8453    3.1384    0.8145 C   0  0  0  0  0  0  0  0  0  0  0  0
   -1.2589    6.5160    0.7443 C   0  0  1  0  0  0  0  0  0  0  0  0
   -0.7001    7.2570   -0.4830 C   0  0  0  0  0  0  0  0  0  0  0  0
   -2.3600    7.3443    1.2464 C   0  0  0  0  0  0  0  0  0  0  0  0
   -2.3965    8.5528    0.9090 O   0  0  0  0  0  0  0  0  0  0  0  0
   -3.3735    6.8967    2.0712 O   0  0  0  0  0  0  0  0  0  0  0  0
   -2.5449   -1.6973    0.3651 H   0  0  0  0  0  0  0  0  0  0  0  0
   -3.5675   -1.2254   -1.0377 H   0  0  0  0  0  0  0  0  0  0  0  0
   -4.3062   -1.5255    0.5456 H   0  0  0  0  0  0  0  0  0  0  0  0
   -4.2949    0.7266    0.7381 H   0  0  0  0  0  0  0  0  0  0  0  0
   -1.3568    0.7773    1.1666 H   0  0  0  0  0  0  0  0  0  0  0  0
   -2.3505   -0.4331    2.1213 H   0  0  0  0  0  0  0  0  0  0  0  0
   -2.7635    1.3532    2.2140 H   0  0  0  0  0  0  0  0  0  0  0  0
   -3.6966    1.1972   -1.4958 H   0  0  0  0  0  0  0  0  0  0  0  0
   -2.0044    0.7210   -1.2544 H   0  0  0  0  0  0  0  0  0  0  0  0
   -1.3237    2.8920   -2.1704 H   0  0  0  0  0  0  0  0  0  0  0  0
   -0.6367    5.1134   -1.5658 H   0  0  0  0  0  0  0  0  0  0  0  0
   -2.7774    4.8412    2.1156 H   0  0  0  0  0  0  0  0  0  0  0  0
   -3.4771    2.6224    1.5364 H   0  0  0  0  0  0  0  0  0  0  0  0
   -0.4656    6.4475    1.5139 H   0  0  0  0  0  0  0  0  0  0  0  0
    0.3990    7.1820   -0.4771 H   0  0  0  0  0  0  0  0  0  0  0  0
   -1.0172    8.3269   -0.4698 H   0  0  0  0  0  0  0  0  0  0  0  0
   -1.1113    6.8224   -1.4148 H   0  0  0  0  0  0  0  0  0  0  0  0
   -3.2473    5.9604    2.4695 H   0  0  0  0  0  0  0  0  0  0  0  0
  1  2  1  0
  2  3  1  0
  2  4  1  0
  4  5  1  0
  5  6  2  0
  6  7  1  0
  7  8  2  0
  8  9  1  0
  9 10  2  0
  8 11  1  0
 11 12  1  0
 11 13  1  0
 13 14  2  0
 13 15  1  0
 10  5  1  0
  1 16  1  0
  1 17  1  0
  1 18  1  0
  2 19  1  0
  3 20  1  0
  3 21  1  0
  3 22  1  0
  4 23  1  0
  4 24  1  0
  6 25  1  0
  7 26  1  0
  9 27  1  0
 10 28  1  0
 11 29  1  1
 12 30  1  0
 12 31  1  0
 12 32  1  0
 15 33  1  0
M  END
$$$$

     RDKit          3D

 33 33  0  0  0  0  0  0  0  0999 V2000
   -3.3997   -1.0951    0.0711 C   0  0  0  0  0  0  0  0  0  0  0  0
   -3.3005    0.3626    0.4063 C   0  0  0  0  0  0  0  0  0  0  0  0
   -4.6037    1.0417    0.0403 C   0  0  0  0  0  0  0  0  0  0  0  0
   -2.9560    0.6304    1.8445 C   0  0  0  0  0  0  0  0  0  0  0  0
   -2.6517   -0.5698    2.6179 C   0  0  0  0  0  0  0  0  0  0  0  0
   -3.6642   -1.2725    3.2290 C   0  0  0  0  0  0  0  0  0  0  0  0
   -3.3935   -2.4093    3.9638 C   0  0  0  0  0  0  0  0  0  0  0  0
   -2.1105   -2.8903    4.1192 C   0  0  0  0  0  0  0  0  0  0  0  0
   -1.1132   -2.1691    3.4975 C   0  0  0  0  0  0  0  0  0  0  0  0
   -1.3712   -1.0339    2.7622 C   0  0  0  0  0  0  0  0  0  0  0  0
   -1.7589   -4.0821    4.8806 C   0  0  1  0  0  0  0  0  0  0  0  0
   -2.8491   -4.3050    5.9432 C   0  0  0  0  0  0  0  0  0  0  0  0
   -1.7026   -5.3207    4.0973 C   0  0  0  0  0  0  0  0  0  0  0  0
   -2.7275   -5.6694    3.4618 O   0  0  0  0  0  0  0  0  0  0  0  0
   -0.5989   -6.1456    4.0007 O   0  0  0  0  0  0  0  0  0  0  0  0
   -2.5449   -1.6973    0.3651 H   0  0  0  0  0  0  0  0  0  0  0  0
   -3.5675   -1.2254   -1.0377 H   0  0  0  0  0  0  0  0  0  0  0  0
   -4.3062   -1.5255    0.5456 H   0  0  0  0  0  0  0  0  0  0  0  0
   -2.5080    0.8248   -0.2182 H   0  0  0  0  0  0  0  0  0  0  0  0
   -4.4520    1.5613   -0.9223 H   0  0  0  0  0  0  0  0  0  0  0  0
   -4.8258    1.7562    0.8627 H   0  0  0  0  0  0  0  0  0  0  0  0
   -5.3841    0.2472   -0.0212 H   0  0  0  0  0  0  0  0  0  0  0  0
   -3.7909    1.2374    2.2678 H   0  0  0  0  0  0  0  0  0  0  0  0
   -2.0622    1.3017    1.8728 H   0  0  0  0  0  0  0  0  0  0  0  0
   -4.7080   -0.9352    3.1392 H   0  0  0  0  0  0  0  0  0  0  0  0
   -4.2306   -2.9131    4.4167 H   0  0  0  0  0  0  0  0  0  0  0  0
   -0.0625   -2.5153    3.5925 H   0  0  0  0  0  0  0  0  0  0  0  0
   -0.5116   -0.5388    2.3121 H   0  0  0  0  0  0  0  0  0  0  0  0
   -0.7889   -3.9211    5.3900 H   0  0  0  0  0  0  0  0  0  0  0  0
   -3.7797   -3.8192    5.6092 H   0  0  0  0  0  0  0  0  0  0  0  0
   -2.5248   -3.8897    6.9271 H   0  0  0  0  0  0  0  0  0  0  0  0
   -3.0151   -5.3882    6.1026 H   0  0  0  0  0  0  0  0  0  0  0  0
    0.0710   -6.0912    4.7750 H   0  0  0  0  0  0  0  0  0  0  0  0
  1  2  1  0
  2  3  1  0
  2  4  1  0
  4  5  1  0
  5  6  2  0
  6  7  1  0
  7  8  2  0
  8  9  1  0
  9 10  2  0
  8 11  1  0
 11 12  1  0
 11 13  1  0
 13 14  2  0
 13 15  1  0
 10  5  1  0
  1 16  1  0
  1 17  1  0
  1 18  1  0
  2 19  1  0
  3 20  1  0
  3 21  1  0
  3 22  1  0
  4 23  1  0
  4 24  1  0
  6 25  1  0
  7 26  1  0
  9 27  1  0
 10 28  1  0
 11 29  1  1
 12 30  1  0
 12 31  1  0
 12 32  1  0
 15 33  1  0
M  END
$$$$

     RDKit          3D

 33 33  0  0  0  0  0  0  0  0999 V2000
   -3.3997   -1.0951    0.0711 C   0  0  0  0  0  0  0  0  0  0  0  0
   -3.3005    0.3626    0.4063 C   0  0  0  0  0  0  0  0  0  0  0  0
   -4.6950    0.9504    0.4645 C   0  0  0  0  0  0  0  0  0  0  0  0
   -2.5611    0.6402    1.6850 C   0  0  0  0  0  0  0  0  0  0  0  0
   -1.9564    1.9675    1.7477 C   0  0  0  0  0  0  0  0  0  0  0  0
   -1.8704    2.7413    0.6135 C   0  0  0  0  0  0  0  0  0  0  0  0
   -1.3016    3.9983    0.6555 C   0  0  0  0  0  0  0  0  0  0  0  0
   -0.7978    4.5334    1.8223 C   0  0  0  0  0  0  0  0  0  0  0  0
   -0.8955    3.7391    2.9452 C   0  0  0  0  0  0  0  0  0  0  0  0
   -1.4607    2.4839    2.9153 C   0  0  0  0  0  0  0  0  0  0  0  0
   -0.1862    5.8515    1.9331 C   0  0  1  0  0  0  0  0  0  0  0  0
   -1.2818    6.8496    2.3464 C   0  0  0  0  0  0  0  0  0  0  0  0
    0.8626    5.9617    2.9523 C   0  0  0  0  0  0  0  0  0  0  0  0
    0.6865    5.3817    4.0516 O   0  0  0  0  0  0  0  0  0  0  0  0
    2.0438    6.6610    2.7989 O   0  0  0  0  0  0  0  0  0  0  0  0
   -2.5449   -1.6973    0.3651 H   0  0  0  0  0  0  0  0  0  0  0  0
   -3.5675   -1.2254   -1.0377 H   0  0  0  0  0  0  0  0  0  0  0  0
   -4.3062   -1.5255    0.5456 H   0  0  0  0  0  0  0  0  0  0  0  0
   -2.7621    0.8863   -0.4108 H   0  0  0  0  0  0  0  0  0  0  0  0
   -4.8219    1.4140    1.4588 H   0  0  0  0  0  0  0  0  0  0  0  0
   -5.3983    0.1026    0.3134 H   0  0  0  0  0  0  0  0  0  0  0  0
   -4.7763    1.6906   -0.3657 H   0  0  0  0  0  0  0  0  0  0  0  0
   -1.8314   -0.1924    1.8222 H   0  0  0  0  0  0  0  0  0  0  0  0
   -3.2806    0.5423    2.5354 H   0  0  0  0  0  0  0  0  0  0  0  0
   -2.2561    2.3656   -0.3465 H   0  0  0  0  0  0  0  0  0  0  0  0
   -1.2650    4.5527   -0.2669 H   0  0  0  0  0  0  0  0  0  0  0  0
   -0.5042    4.1247    3.9102 H   0  0  0  0  0  0  0  0  0  0  0  0
   -1.4883    1.9392    3.8582 H   0  0  0  0  0  0  0  0  0  0  0  0
    0.2207    6.1529    0.9483 H   0  0  0  0  0  0  0  0  0  0  0  0
   -1.3618    6.8593    3.4451 H   0  0  0  0  0  0  0  0  0  0  0  0
   -2.2592    6.5674    1.8875 H   0  0  0  0  0  0  0  0  0  0  0  0
   -1.0418    7.8624    1.9683 H   0  0  0  0  0  0  0  0  0  0  0  0
    1.9888    7.6735    2.9512 H   0  0  0  0  0  0  0  0  0  0  0  0
  1  2  1  0
  2  3  1  0
  2  4  1  0
  4  5  1  0
  5  6  2  0
  6  7  1  0
  7  8  2  0
  8  9  1  0
  9 10  2  0
  8 11  1  0
 11 12  1  0
 11 13  1  0
 13 14  2  0
 13 15  1  0
 10  5  1  0
  1 16  1  0
  1 17  1  0
  1 18  1  0
  2 19  1  0
  3 20  1  0
  3 21  1  0
  3 22  1  0
  4 23  1  0
  4 24  1  0
  6 25  1  0
  7 26  1  0
  9 27  1  0
 10 28  1  0
 11 29  1  6
 12 30  1  0
 12 31  1  0
 12 32  1  0
 15 33  1  0
M  END
$$$$

     RDKit          3D

 33 33  0  0  0  0  0  0  0  0999 V2000
   -3.3997   -1.0951    0.0711 C   0  0  0  0  0  0  0  0  0  0  0  0
   -3.3005    0.3626    0.4063 C   0  0  0  0  0  0  0  0  0  0  0  0
   -4.6893    0.9664    0.3933 C   0  0  0  0  0  0  0  0  0  0  0  0
   -2.6224    0.6365    1.7194 C   0  0  0  0  0  0  0  0  0  0  0  0
   -1.2501    1.1181    1.5924 C   0  0  0  0  0  0  0  0  0  0  0  0
   -0.3217    0.8213    2.5632 C   0  0  0  0  0  0  0  0  0  0  0  0
    0.9799    1.2689    2.4583 C   0  0  0  0  0  0  0  0  0  0  0  0
    1.4079    2.0262    1.3884 C   0  0  0  0  0  0  0  0  0  0  0  0
    0.4595    2.3105    0.4288 C   0  0  0  0  0  0  0  0  0  0  0  0
   -0.8416    1.8695    0.5227 C   0  0  0  0  0  0  0  0  0  0  0  0
    2.7654    2.5284    1.2189 C   0  0  1  0  0  0  0  0  0  0  0  0
    3.0133    3.5985    2.2965 C   0  0  0  0  0  0  0  0  0  0  0  0
    3.8212    1.5264    1.3978 C   0  0  0  0  0  0  0  0  0  0  0  0
    4.3881    1.0709    0.3746 O   0  0  0  0  0  0  0  0  0  0  0  0
    4.2481    1.0367    2.6167 O   0  0  0  0  0  0  0  0  0  0  0  0
   -2.5449   -1.6973    0.3651 H   0  0  0  0  0  0  0  0  0  0  0  0
   -3.5675   -1.2254   -1.0377 H   0  0  0  0  0  0  0  0  0  0  0  0
   -4.3062   -1.5255    0.5456 H   0  0  0  0  0  0  0  0  0  0  0  0
   -2.7162    0.8772   -0.3846 H   0  0  0  0  0  0  0  0  0  0  0  0
   -5.3604    0.2745    0.9322 H   0  0  0  0  0  0  0  0  0  0  0  0
   -4.9762    1.0679   -0.6761 H   0  0  0  0  0  0  0  0  0  0  0  0
   -4.6199    1.9648    0.8856 H   0  0  0  0  0  0  0  0  0  0  0  0
   -2.7176   -0.2919    2.3306 H   0  0  0  0  0  0  0  0  0  0  0  0
   -3.2161    1.4098    2.2670 H   0  0  0  0  0  0  0  0  0  0  0  0
   -0.6067    0.2201    3.4400 H   0  0  0  0  0  0  0  0  0  0  0  0
    1.6572    1.0020    3.2519 H   0  0  0  0  0  0  0  0  0  0  0  0
    0.7542    2.9175   -0.4530 H   0  0  0  0  0  0  0  0  0  0  0  0
   -1.5111    2.1497   -0.2896 H   0  0  0  0  0  0  0  0  0  0  0  0
    2.8634    2.9960    0.2199 H   0  0  0  0  0  0  0  0  0  0  0  0
    3.8370    4.2526    1.9690 H   0  0  0  0  0  0  0  0  0  0  0  0
    3.2624    3.1181    3.2725 H   0  0  0  0  0  0  0  0  0  0  0  0
    2.0943    4.1919    2.4677 H   0  0  0  0  0  0  0  0  0  0  0  0
    4.5807    0.0668    2.6190 H   0  0  0  0  0  0  0  0  0  0  0  0
  1  2  1  0
  2  3  1  0
  2  4  1  0
  4  5  1  0
  5  6  2  0
  6  7  1  0
  7  8  2  0
  8  9  1  0
  9 10  2  0
  8 11  1  0
 11 12  1  0
 11 13  1  0
 13 14  2  0
 13 15  1  0
 10  5  1  0
  1 16  1  0
  1 17  1  0
  1 18  1  0
  2 19  1  0
  3 20  1  0
  3 21  1  0
  3 22  1  0
  4 23  1  0
  4 24  1  0
  6 25  1  0
  7 26  1  0
  9 27  1  0
 10 28  1  0
 11 29  1  6
 12 30  1  0
 12 31  1  0
 12 32  1  0
 15 33  1  0
M  END
$$$$

     RDKit          3D

 33 33  0  0  0  0  0  0  0  0999 V2000
   -3.3997   -1.0951    0.0711 C   0  0  0  0  0  0  0  0  0  0  0  0
   -3.3005    0.3626    0.4063 C   0  0  0  0  0  0  0  0  0  0  0  0
   -3.6996    1.1751   -0.8078 C   0  0  0  0  0  0  0  0  0  0  0  0
   -4.1206    0.7661    1.5994 C   0  0  0  0  0  0  0  0  0  0  0  0
   -4.8942    1.9888    1.4048 C   0  0  0  0  0  0  0  0  0  0  0  0
   -4.6126    2.8232    0.3479 C   0  0  0  0  0  0  0  0  0  0  0  0
   -5.3345    3.9829    0.1497 C   0  0  0  0  0  0  0  0  0  0  0  0
   -6.3607    4.3573    0.9912 C   0  0  0  0  0  0  0  0  0  0  0  0
   -6.6239    3.5052    2.0428 C   0  0  0  0  0  0  0  0  0  0  0  0
   -5.9106    2.3458    2.2505 C   0  0  0  0  0  0  0  0  0  0  0  0
   -7.1594    5.5665    0.8372 C   0  0  1  0  0  0  0  0  0  0  0  0
   -7.8384    5.8617    2.1860 C   0  0  0  0  0  0  0  0  0  0  0  0
   -6.3954    6.7721    0.5000 C   0  0  0  0  0  0  0  0  0  0  0  0
   -5.4410    7.0994    1.2468 O   0  0  0  0  0  0  0  0  0  0  0  0
   -6.6441    7.5875   -0.5869 O   0  0  0  0  0  0  0  0  0  0  0  0
   -2.5449   -1.6973    0.3651 H   0  0  0  0  0  0  0  0  0  0  0  0
   -3.5675   -1.2254   -1.0377 H   0  0  0  0  0  0  0  0  0  0  0  0
   -4.3062   -1.5255    0.5456 H   0  0  0  0  0  0  0  0  0  0  0  0
   -2.2423    0.6119    0.6292 H   0  0  0  0  0  0  0  0  0  0  0  0
   -2.9474    0.9922   -1.5955 H   0  0  0  0  0  0  0  0  0  0  0  0
   -3.7056    2.2388   -0.4842 H   0  0  0  0  0  0  0  0  0  0  0  0
   -4.7212    0.8420   -1.1068 H   0  0  0  0  0  0  0  0  0  0  0  0
   -3.4236    0.8096    2.4693 H   0  0  0  0  0  0  0  0  0  0  0  0
   -4.8312   -0.0646    1.8346 H   0  0  0  0  0  0  0  0  0  0  0  0
   -3.8040    2.5749   -0.3564 H   0  0  0  0  0  0  0  0  0  0  0  0
   -5.0640    4.5922   -0.6960 H   0  0  0  0  0  0  0  0  0  0  0  0
   -7.4411    3.7621    2.7493 H   0  0  0  0  0  0  0  0  0  0  0  0
   -6.1993    1.7434    3.1109 H   0  0  0  0  0  0  0  0  0  0  0  0
   -7.9412    5.3967    0.0715 H   0  0  0  0  0  0  0  0  0  0  0  0
   -8.8269    6.3103    1.9989 H   0  0  0  0  0  0  0  0  0  0  0  0
   -7.2078    6.5504    2.7972 H   0  0  0  0  0  0  0  0  0  0  0  0
   -7.9429    4.9303    2.7758 H   0  0  0  0  0  0  0  0  0  0  0  0
   -7.6084    7.9217   -0.6856 H   0  0  0  0  0  0  0  0  0  0  0  0
  1  2  1  0
  2  3  1  0
  2  4  1  0
  4  5  1  0
  5  6  2  0
  6  7  1  0
  7  8  2  0
  8  9  1  0
  9 10  2  0
  8 11  1  0
 11 12  1  0
 11 13  1  0
 13 14  2  0
 13 15  1  0
 10  5  1  0
  1 16  1  0
  1 17  1  0
  1 18  1  0
  2 19  1  0
  3 20  1  0
  3 21  1  0
  3 22  1  0
  4 23  1  0
  4 24  1  0
  6 25  1  0
  7 26  1  0
  9 27  1  0
 10 28  1  0
 11 29  1  6
 12 30  1  0
 12 31  1  0
 12 32  1  0
 15 33  1  0
M  END
$$$$

     RDKit          3D

 33 33  0  0  0  0  0  0  0  0999 V2000
   -3.3997   -1.0951    0.0711 C   0  0  0  0  0  0  0  0  0  0  0  0
   -3.3005    0.3626    0.4063 C   0  0  0  0  0  0  0  0  0  0  0  0
   -3.2486    0.5192    1.9117 C   0  0  0  0  0  0  0  0  0  0  0  0
   -2.1275    1.0516   -0.2328 C   0  0  0  0  0  0  0  0  0  0  0  0
   -0.9552    0.1983   -0.4027 C   0  0  0  0  0  0  0  0  0  0  0  0
   -1.0745   -1.1681   -0.2958 C   0  0  0  0  0  0  0  0  0  0  0  0
    0.0239   -1.9891   -0.4536 C   0  0  0  0  0  0  0  0  0  0  0  0
    1.2792   -1.4859   -0.7229 C   0  0  0  0  0  0  0  0  0  0  0  0
    1.3733   -0.1141   -0.8254 C   0  0  0  0  0  0  0  0  0  0  0  0
    0.2848    0.7147   -0.6699 C   0  0  0  0  0  0  0  0  0  0  0  0
    2.4767   -2.2973   -0.9002 C   0  0  1  0  0  0  0  0  0  0  0  0
    3.4080   -1.5610   -1.8790 C   0  0  0  0  0  0  0  0  0  0  0  0
    3.2636   -2.5110    0.3188 C   0  0  0  0  0  0  0  0  0  0  0  0
    2.8211   -2.0520    1.4002 O   0  0  0  0  0  0  0  0  0  0  0  0
    4.4678   -3.1852    0.3744 O   0  0  0  0  0  0  0  0  0  0  0  0
   -2.5449   -1.6973    0.3651 H   0  0  0  0  0  0  0  0  0  0  0  0
   -3.5675   -1.2254   -1.0377 H   0  0  0  0  0  0  0  0  0  0  0  0
   -4.3062   -1.5255    0.5456 H   0  0  0  0  0  0  0  0  0  0  0  0
   -4.2199    0.8777    0.0585 H   0  0  0  0  0  0  0  0  0  0  0  0
   -2.6042    1.3876    2.1362 H   0  0  0  0  0  0  0  0  0  0  0  0
   -2.8186   -0.4256    2.3098 H   0  0  0  0  0  0  0  0  0  0  0  0
   -4.2967    0.6621    2.2651 H   0  0  0  0  0  0  0  0  0  0  0  0
   -1.9297    1.9721    0.3656 H   0  0  0  0  0  0  0  0  0  0  0  0
   -2.4423    1.4195   -1.2407 H   0  0  0  0  0  0  0  0  0  0  0  0
   -2.0523   -1.6258   -0.0820 H   0  0  0  0  0  0  0  0  0  0  0  0
   -0.1368   -3.0495   -0.3577 H   0  0  0  0  0  0  0  0  0  0  0  0
    2.3630    0.3407   -1.0413 H   0  0  0  0  0  0  0  0  0  0  0  0
    0.4678    1.7838   -0.7706 H   0  0  0  0  0  0  0  0  0  0  0  0
    2.1976   -3.2755   -1.3377 H   0  0  0  0  0  0  0  0  0  0  0  0
    2.8946   -1.4501   -2.8473 H   0  0  0  0  0  0  0  0  0  0  0  0
    4.3627   -2.1247   -2.0070 H   0  0  0  0  0  0  0  0  0  0  0  0
    3.6850   -0.5685   -1.4734 H   0  0  0  0  0  0  0  0  0  0  0  0
    5.2240   -2.7120    0.8799 H   0  0  0  0  0  0  0  0  0  0  0  0
  1  2  1  0
  2  3  1  0
  2  4  1  0
  4  5  1  0
  5  6  2  0
  6  7  1  0
  7  8  2  0
  8  9  1  0
  9 10  2  0
  8 11  1  0
 11 12  1  0
 11 13  1  0
 13 14  2  0
 13 15  1  0
 10  5  1  0
  1 16  1  0
  1 17  1  0
  1 18  1  0
  2 19  1  0
  3 20  1  0
  3 21  1  0
  3 22  1  0
  4 23  1  0
  4 24  1  0
  6 25  1  0
  7 26  1  0
  9 27  1  0
 10 28  1  0
 11 29  1  6
 12 30  1  0
 12 31  1  0
 12 32  1  0
 15 33  1  0
M  END
$$$$

     RDKit          3D

 33 33  0  0  0  0  0  0  0  0999 V2000
   -3.3997   -1.0951    0.0711 C   0  0  0  0  0  0  0  0  0  0  0  0
   -3.3005    0.3626    0.4063 C   0  0  0  0  0  0  0  0  0  0  0  0
   -4.2323    0.6669    1.5606 C   0  0  0  0  0  0  0  0  0  0  0  0
   -1.9038    0.8157    0.7271 C   0  0  0  0  0  0  0  0  0  0  0  0
   -1.7744    1.4764    2.0225 C   0  0  0  0  0  0  0  0  0  0  0  0
   -1.3191    0.7732    3.1137 C   0  0  0  0  0  0  0  0  0  0  0  0
   -1.1910    1.3829    4.3455 C   0  0  0  0  0  0  0  0  0  0  0  0
   -1.5091    2.7104    4.5401 C   0  0  0  0  0  0  0  0  0  0  0  0
   -1.9629    3.3938    3.4318 C   0  0  0  0  0  0  0  0  0  0  0  0
   -2.0949    2.7962    2.1983 C   0  0  0  0  0  0  0  0  0  0  0  0
   -1.3963    3.4117    5.8126 C   0  0  1  0  0  0  0  0  0  0  0  0
   -1.3765    2.3588    6.9344 C   0  0  0  0  0  0  0  0  0  0  0  0
   -0.1692    4.1975    5.9777 C   0  0  0  0  0  0  0  0  0  0  0  0
    0.9282    3.6495    5.7108 O   0  0  0  0  0  0  0  0  0  0  0  0
   -0.1221    5.5090    6.4088 O   0  0  0  0  0  0  0  0  0  0  0  0
   -2.5449   -1.6973    0.3651 H   0  0  0  0  0  0  0  0  0  0  0  0
   -3.5675   -1.2254   -1.0377 H   0  0  0  0  0  0  0  0  0  0  0  0
   -4.3062   -1.5255    0.5456 H   0  0  0  0  0  0  0  0  0  0  0  0
   -3.6536    0.9585   -0.4608 H   0  0  0  0  0  0  0  0  0  0  0  0
   -4.3319   -0.2537    2.1625 H   0  0  0  0  0  0  0  0  0  0  0  0
   -5.2020    0.9693    1.1085 H   0  0  0  0  0  0  0  0  0  0  0  0
   -3.7801    1.5077    2.1373 H   0  0  0  0  0  0  0  0  0  0  0  0
   -1.5629    1.4410   -0.1317 H   0  0  0  0  0  0  0  0  0  0  0  0
   -1.2338   -0.0796    0.7216 H   0  0  0  0  0  0  0  0  0  0  0  0
   -1.0501   -0.2897    3.0176 H   0  0  0  0  0  0  0  0  0  0  0  0
   -0.8292    0.7770    5.1589 H   0  0  0  0  0  0  0  0  0  0  0  0
   -2.2325    4.4659    3.5363 H   0  0  0  0  0  0  0  0  0  0  0  0
   -2.4622    3.4256    1.3886 H   0  0  0  0  0  0  0  0  0  0  0  0
   -2.2780    4.0673    5.9514 H   0  0  0  0  0  0  0  0  0  0  0  0
   -0.6853    1.5484    6.6530 H   0  0  0  0  0  0  0  0  0  0  0  0
   -2.4019    1.9535    7.1065 H   0  0  0  0  0  0  0  0  0  0  0  0
   -1.0605    2.8208    7.8898 H   0  0  0  0  0  0  0  0  0  0  0  0
   -0.9376    5.8373    6.9365 H   0  0  0  0  0  0  0  0  0  0  0  0
  1  2  1  0
  2  3  1  0
  2  4  1  0
  4  5  1  0
  5  6  2  0
  6  7  1  0
  7  8  2  0
  8  9  1  0
  9 10  2  0
  8 11  1  0
 11 12  1  0
 11 13  1  0
 13 14  2  0
 13 15  1  0
 10  5  1  0
  1 16  1  0
  1 17  1  0
  1 18  1  0
  2 19  1  0
  3 20  1  0
  3 21  1  0
  3 22  1  0
  4 23  1  0
  4 24  1  0
  6 25  1  0
  7 26  1  0
  9 27  1  0
 10 28  1  0
 11 29  1  1
 12 30  1  0
 12 31  1  0
 12 32  1  0
 15 33  1  0
M  END
$$$$

     RDKit          3D

 33 33  0  0  0  0  0  0  0  0999 V2000
   -3.3997   -1.0951    0.0711 C   0  0  0  0  0  0  0  0  0  0  0  0
   -3.3005    0.3626    0.4063 C   0  0  0  0  0  0  0  0  0  0  0  0
   -2.0814    0.5858    1.2766 C   0  0  0  0  0  0  0  0  0  0  0  0
   -3.2543    1.2586   -0.7996 C   0  0  0  0  0  0  0  0  0  0  0  0
   -3.7330    2.6154   -0.5525 C   0  0  0  0  0  0  0  0  0  0  0  0
   -3.6682    3.5625   -1.5482 C   0  0  0  0  0  0  0  0  0  0  0  0
   -4.1165    4.8498   -1.3310 C   0  0  0  0  0  0  0  0  0  0  0  0
   -4.6449    5.2447   -0.1200 C   0  0  0  0  0  0  0  0  0  0  0  0
   -4.6993    4.2781    0.8618 C   0  0  0  0  0  0  0  0  0  0  0  0
   -4.2551    2.9910    0.6566 C   0  0  0  0  0  0  0  0  0  0  0  0
   -5.1346    6.5857    0.1726 C   0  0  1  0  0  0  0  0  0  0  0  0
   -3.9209    7.4731    0.4997 C   0  0  0  0  0  0  0  0  0  0  0  0
   -5.8271    7.2462   -0.9386 C   0  0  0  0  0  0  0  0  0  0  0  0
   -7.0814    7.2020   -0.9679 O   0  0  0  0  0  0  0  0  0  0  0  0
   -5.2033    7.9219   -1.9692 O   0  0  0  0  0  0  0  0  0  0  0  0
   -2.5449   -1.6973    0.3651 H   0  0  0  0  0  0  0  0  0  0  0  0
   -3.5675   -1.2254   -1.0377 H   0  0  0  0  0  0  0  0  0  0  0  0
   -4.3062   -1.5255    0.5456 H   0  0  0  0  0  0  0  0  0  0  0  0
   -4.1857    0.6573    1.0071 H   0  0  0  0  0  0  0  0  0  0  0  0
   -1.5724    1.4960    0.9133 H   0  0  0  0  0  0  0  0  0  0  0  0
   -1.4432   -0.3170    1.1585 H   0  0  0  0  0  0  0  0  0  0  0  0
   -2.4402    0.6874    2.3277 H   0  0  0  0  0  0  0  0  0  0  0  0
   -3.8035    0.7303   -1.6144 H   0  0  0  0  0  0  0  0  0  0  0  0
   -2.1949    1.3193   -1.1520 H   0  0  0  0  0  0  0  0  0  0  0  0
   -3.2559    3.3040   -2.5354 H   0  0  0  0  0  0  0  0  0  0  0  0
   -4.0378    5.5430   -2.1513 H   0  0  0  0  0  0  0  0  0  0  0  0
   -5.1165    4.5461    1.8553 H   0  0  0  0  0  0  0  0  0  0  0  0
   -4.3432    2.3050    1.4982 H   0  0  0  0  0  0  0  0  0  0  0  0
   -5.8013    6.5499    1.0562 H   0  0  0  0  0  0  0  0  0  0  0  0
   -3.7862    8.2083   -0.3096 H   0  0  0  0  0  0  0  0  0  0  0  0
   -3.0026    6.8497    0.6160 H   0  0  0  0  0  0  0  0  0  0  0  0
   -4.0714    7.9888    1.4680 H   0  0  0  0  0  0  0  0  0  0  0  0
   -4.4941    8.6082   -1.6912 H   0  0  0  0  0  0  0  0  0  0  0  0
  1  2  1  0
  2  3  1  0
  2  4  1  0
  4  5  1  0
  5  6  2  0
  6  7  1  0
  7  8  2  0
  8  9  1  0
  9 10  2  0
  8 11  1  0
 11 12  1  0
 11 13  1  0
 13 14  2  0
 13 15  1  0
 10  5  1  0
  1 16  1  0
  1 17  1  0
  1 18  1  0
  2 19  1  0
  3 20  1  0
  3 21  1  0
  3 22  1  0
  4 23  1  0
  4 24  1  0
  6 25  1  0
  7 26  1  0
  9 27  1  0
 10 28  1  0
 11 29  1  1
 12 30  1  0
 12 31  1  0
 12 32  1  0
 15 33  1  0
M  END
$$$$

     RDKit          3D

 33 33  0  0  0  0  0  0  0  0999 V2000
   -3.3997   -1.0951    0.0711 C   0  0  0  0  0  0  0  0  0  0  0  0
   -3.3005    0.3626    0.4063 C   0  0  0  0  0  0  0  0  0  0  0  0
   -1.9972    0.6123    1.1361 C   0  0  0  0  0  0  0  0  0  0  0  0
   -3.4132    1.2670   -0.7889 C   0  0  0  0  0  0  0  0  0  0  0  0
   -3.2290    2.6828   -0.4844 C   0  0  0  0  0  0  0  0  0  0  0  0
   -2.2644    3.4107   -1.1418 C   0  0  0  0  0  0  0  0  0  0  0  0
   -2.0774    4.7502   -0.8657 C   0  0  0  0  0  0  0  0  0  0  0  0
   -2.8391    5.4161    0.0713 C   0  0  0  0  0  0  0  0  0  0  0  0
   -3.7990    4.6655    0.7166 C   0  0  0  0  0  0  0  0  0  0  0  0
   -3.9946    3.3289    0.4495 C   0  0  0  0  0  0  0  0  0  0  0  0
   -2.6919    6.8262    0.4084 C   0  0  1  0  0  0  0  0  0  0  0  0
   -3.9697    7.5570   -0.0395 C   0  0  0  0  0  0  0  0  0  0  0  0
   -2.5499    7.1070    1.8407 C   0  0  0  0  0  0  0  0  0  0  0  0
   -3.2970    6.4958    2.6433 O   0  0  0  0  0  0  0  0  0  0  0  0
   -1.6490    8.0010    2.3857 O   0  0  0  0  0  0  0  0  0  0  0  0
   -2.5449   -1.6973    0.3651 H   0  0  0  0  0  0  0  0  0  0  0  0
   -3.5675   -1.2254   -1.0377 H   0  0  0  0  0  0  0  0  0  0  0  0
   -4.3062   -1.5255    0.5456 H   0  0  0  0  0  0  0  0  0  0  0  0
   -4.1197    0.6302    1.1055 H   0  0  0  0  0  0  0  0  0  0  0  0
   -1.8603   -0.2046    1.8665 H   0  0  0  0  0  0  0  0  0  0  0  0
   -2.1037    1.5988    1.6378 H   0  0  0  0  0  0  0  0  0  0  0  0
   -1.1887    0.6391    0.3683 H   0  0  0  0  0  0  0  0  0  0  0  0
   -4.3897    1.0360   -1.2764 H   0  0  0  0  0  0  0  0  0  0  0  0
   -2.6355    0.9644   -1.5332 H   0  0  0  0  0  0  0  0  0  0  0  0
   -1.6266    2.9314   -1.9000 H   0  0  0  0  0  0  0  0  0  0  0  0
   -1.3058    5.2626   -1.4150 H   0  0  0  0  0  0  0  0  0  0  0  0
   -4.4388    5.1557    1.4803 H   0  0  0  0  0  0  0  0  0  0  0  0
   -4.7795    2.8286    1.0154 H   0  0  0  0  0  0  0  0  0  0  0  0
   -1.8268    7.2477   -0.1397 H   0  0  0  0  0  0  0  0  0  0  0  0
   -4.8187    7.1957    0.5624 H   0  0  0  0  0  0  0  0  0  0  0  0
   -4.1593    7.3805   -1.1250 H   0  0  0  0  0  0  0  0  0  0  0  0
   -3.8493    8.6511    0.0812 H   0  0  0  0  0  0  0  0  0  0  0  0
   -0.6592    7.7458    2.3050 H   0  0  0  0  0  0  0  0  0  0  0  0
  1  2  1  0
  2  3  1  0
  2  4  1  0
  4  5  1  0
  5  6  2  0
  6  7  1  0
  7  8  2  0
  8  9  1  0
  9 10  2  0
  8 11  1  0
 11 12  1  0
 11 13  1  0
 13 14  2  0
 13 15  1  0
 10  5  1  0
  1 16  1  0
  1 17  1  0
  1 18  1  0
  2 19  1  0
  3 20  1  0
  3 21  1  0
  3 22  1  0
  4 23  1  0
  4 24  1  0
  6 25  1  0
  7 26  1  0
  9 27  1  0
 10 28  1  0
 11 29  1  6
 12 30  1  0
 12 31  1  0
 12 32  1  0
 15 33  1  0
M  END
$$$$

     RDKit          3D

 33 33  0  0  0  0  0  0  0  0999 V2000
   -3.3997   -1.0951    0.0711 C   0  0  0  0  0  0  0  0  0  0  0  0
   -3.3005    0.3626    0.4063 C   0  0  0  0  0  0  0  0  0  0  0  0
   -3.8950    0.5935    1.7798 C   0  0  0  0  0  0  0  0  0  0  0  0
   -1.8995    0.9034    0.3442 C   0  0  0  0  0  0  0  0  0  0  0  0
   -0.8643   -0.1255    0.3137 C   0  0  0  0  0  0  0  0  0  0  0  0
   -1.1013   -1.3601    0.8724 C   0  0  0  0  0  0  0  0  0  0  0  0
   -0.1333   -2.3440    0.8521 C   0  0  0  0  0  0  0  0  0  0  0  0
    1.1036   -2.1399    0.2776 C   0  0  0  0  0  0  0  0  0  0  0  0
    1.3172   -0.8951   -0.2755 C   0  0  0  0  0  0  0  0  0  0  0  0
    0.3592    0.0940   -0.2611 C   0  0  0  0  0  0  0  0  0  0  0  0
    2.1665   -3.1354    0.2234 C   0  0  1  0  0  0  0  0  0  0  0  0
    2.3589   -3.7016    1.6411 C   0  0  0  0  0  0  0  0  0  0  0  0
    1.8872   -4.2905   -0.6358 C   0  0  0  0  0  0  0  0  0  0  0  0
    1.5016   -4.0777   -1.8113 O   0  0  0  0  0  0  0  0  0  0  0  0
    2.0156   -5.6111   -0.2517 O   0  0  0  0  0  0  0  0  0  0  0  0
   -2.5449   -1.6973    0.3651 H   0  0  0  0  0  0  0  0  0  0  0  0
   -3.5675   -1.2254   -1.0377 H   0  0  0  0  0  0  0  0  0  0  0  0
   -4.3062   -1.5255    0.5456 H   0  0  0  0  0  0  0  0  0  0  0  0
   -3.9141    0.9425   -0.3140 H   0  0  0  0  0  0  0  0  0  0  0  0
   -4.7409    1.2943    1.6653 H   0  0  0  0  0  0  0  0  0  0  0  0
   -3.0831    1.0276    2.4032 H   0  0  0  0  0  0  0  0  0  0  0  0
   -4.2137   -0.4003    2.1730 H   0  0  0  0  0  0  0  0  0  0  0  0
   -1.7938    1.6215    1.1914 H   0  0  0  0  0  0  0  0  0  0  0  0
   -1.8033    1.5250   -0.5803 H   0  0  0  0  0  0  0  0  0  0  0  0
   -2.0708   -1.5797    1.3450 H   0  0  0  0  0  0  0  0  0  0  0  0
   -0.3820   -3.2881    1.3065 H   0  0  0  0  0  0  0  0  0  0  0  0
    2.2976   -0.6807   -0.7506 H   0  0  0  0  0  0  0  0  0  0  0  0
    0.6298    1.0414   -0.7256 H   0  0  0  0  0  0  0  0  0  0  0  0
    3.1084   -2.6515   -0.1005 H   0  0  0  0  0  0  0  0  0  0  0  0
    1.6860   -4.5632    1.7772 H   0  0  0  0  0  0  0  0  0  0  0  0
    2.1464   -2.9173    2.4060 H   0  0  0  0  0  0  0  0  0  0  0  0
    3.4123   -4.0071    1.7935 H   0  0  0  0  0  0  0  0  0  0  0  0
    2.6933   -6.1687   -0.7819 H   0  0  0  0  0  0  0  0  0  0  0  0
  1  2  1  0
  2  3  1  0
  2  4  1  0
  4  5  1  0
  5  6  2  0
  6  7  1  0
  7  8  2  0
  8  9  1  0
  9 10  2  0
  8 11  1  0
 11 12  1  0
 11 13  1  0
 13 14  2  0
 13 15  1  0
 10  5  1  0
  1 16  1  0
  1 17  1  0
  1 18  1  0
  2 19  1  0
  3 20  1  0
  3 21  1  0
  3 22  1  0
  4 23  1  0
  4 24  1  0
  6 25  1  0
  7 26  1  0
  9 27  1  0
 10 28  1  0
 11 29  1  6
 12 30  1  0
 12 31  1  0
 12 32  1  0
 15 33  1  0
M  END
$$$$

     RDKit          3D

 33 33  0  0  0  0  0  0  0  0999 V2000
   -3.3997   -1.0951    0.0711 C   0  0  0  0  0  0  0  0  0  0  0  0
   -3.3005    0.3626    0.4063 C   0  0  0  0  0  0  0  0  0  0  0  0
   -2.5044    0.5207    1.6849 C   0  0  0  0  0  0  0  0  0  0  0  0
   -2.7000    1.1959   -0.6911 C   0  0  0  0  0  0  0  0  0  0  0  0
   -3.4462    1.1569   -1.9452 C   0  0  0  0  0  0  0  0  0  0  0  0
   -3.5654    2.2920   -2.7133 C   0  0  0  0  0  0  0  0  0  0  0  0
   -4.2675    2.2721   -3.9016 C   0  0  0  0  0  0  0  0  0  0  0  0
   -4.8763    1.1274   -4.3713 C   0  0  0  0  0  0  0  0  0  0  0  0
   -4.7428    0.0032   -3.5842 C   0  0  0  0  0  0  0  0  0  0  0  0
   -4.0450    0.0111   -2.3971 C   0  0  0  0  0  0  0  0  0  0  0  0
   -5.6304    1.0406   -5.6152 C   0  0  1  0  0  0  0  0  0  0  0  0
   -6.5795   -0.1660   -5.5114 C   0  0  0  0  0  0  0  0  0  0  0  0
   -6.4832    2.1987   -5.9022 C   0  0  0  0  0  0  0  0  0  0  0  0
   -5.9298    3.2847   -6.2027 O   0  0  0  0  0  0  0  0  0  0  0  0
   -7.8640    2.1915   -5.8684 O   0  0  0  0  0  0  0  0  0  0  0  0
   -2.5449   -1.6973    0.3651 H   0  0  0  0  0  0  0  0  0  0  0  0
   -3.5675   -1.2254   -1.0377 H   0  0  0  0  0  0  0  0  0  0  0  0
   -4.3062   -1.5255    0.5456 H   0  0  0  0  0  0  0  0  0  0  0  0
   -4.3177    0.7583    0.6070 H   0  0  0  0  0  0  0  0  0  0  0  0
   -3.2198    0.7191    2.5025 H   0  0  0  0  0  0  0  0  0  0  0  0
   -1.8180    1.3800    1.5217 H   0  0  0  0  0  0  0  0  0  0  0  0
   -1.9329   -0.4248    1.8370 H   0  0  0  0  0  0  0  0  0  0  0  0
   -1.6358    0.8769   -0.7919 H   0  0  0  0  0  0  0  0  0  0  0  0
   -2.6558    2.2574   -0.3422 H   0  0  0  0  0  0  0  0  0  0  0  0
   -3.1000    3.2349   -2.3880 H   0  0  0  0  0  0  0  0  0  0  0  0
   -4.3232    3.1940   -4.4554 H   0  0  0  0  0  0  0  0  0  0  0  0
   -5.2150   -0.9445   -3.9187 H   0  0  0  0  0  0  0  0  0  0  0  0
   -4.0001   -0.9309   -1.8519 H   0  0  0  0  0  0  0  0  0  0  0  0
   -4.9321    0.8762   -6.4588 H   0  0  0  0  0  0  0  0  0  0  0  0
   -6.7679   -0.5616   -6.5222 H   0  0  0  0  0  0  0  0  0  0  0  0
   -7.5386    0.1334   -5.0257 H   0  0  0  0  0  0  0  0  0  0  0  0
   -6.1361   -0.9497   -4.8669 H   0  0  0  0  0  0  0  0  0  0  0  0
   -8.3261    3.0301   -6.2351 H   0  0  0  0  0  0  0  0  0  0  0  0
  1  2  1  0
  2  3  1  0
  2  4  1  0
  4  5  1  0
  5  6  2  0
  6  7  1  0
  7  8  2  0
  8  9  1  0
  9 10  2  0
  8 11  1  0
 11 12  1  0
 11 13  1  0
 13 14  2  0
 13 15  1  0
 10  5  1  0
  1 16  1  0
  1 17  1  0
  1 18  1  0
  2 19  1  0
  3 20  1  0
  3 21  1  0
  3 22  1  0
  4 23  1  0
  4 24  1  0
  6 25  1  0
  7 26  1  0
  9 27  1  0
 10 28  1  0
 11 29  1  6
 12 30  1  0
 12 31  1  0
 12 32  1  0
 15 33  1  0
M  END
$$$$

     RDKit          3D

 33 33  0  0  0  0  0  0  0  0999 V2000
   -3.3997   -1.0951    0.0711 C   0  0  0  0  0  0  0  0  0  0  0  0
   -3.3005    0.3626    0.4063 C   0  0  0  0  0  0  0  0  0  0  0  0
   -4.6969    0.9320    0.5449 C   0  0  0  0  0  0  0  0  0  0  0  0
   -2.4943    0.6454    1.6428 C   0  0  0  0  0  0  0  0  0  0  0  0
   -1.4049   -0.2989    1.8728 C   0  0  0  0  0  0  0  0  0  0  0  0
   -1.2728   -1.4092    1.0713 C   0  0  0  0  0  0  0  0  0  0  0  0
   -0.2485   -2.3117    1.2754 C   0  0  0  0  0  0  0  0  0  0  0  0
    0.6812   -2.1465    2.2804 C   0  0  0  0  0  0  0  0  0  0  0  0
    0.5278   -1.0267    3.0701 C   0  0  0  0  0  0  0  0  0  0  0  0
   -0.4899   -0.1196    2.8760 C   0  0  0  0  0  0  0  0  0  0  0  0
    1.7839   -3.0610    2.5476 C   0  0  1  0  0  0  0  0  0  0  0  0
    1.7436   -4.1754    1.4875 C   0  0  0  0  0  0  0  0  0  0  0  0
    3.1194   -2.4628    2.4507 C   0  0  0  0  0  0  0  0  0  0  0  0
    3.2154   -1.2911    2.0104 O   0  0  0  0  0  0  0  0  0  0  0  0
    4.2955   -3.0920    2.8093 O   0  0  0  0  0  0  0  0  0  0  0  0
   -2.5449   -1.6973    0.3651 H   0  0  0  0  0  0  0  0  0  0  0  0
   -3.5675   -1.2254   -1.0377 H   0  0  0  0  0  0  0  0  0  0  0  0
   -4.3062   -1.5255    0.5456 H   0  0  0  0  0  0  0  0  0  0  0  0
   -2.8154    0.8961   -0.4374 H   0  0  0  0  0  0  0  0  0  0  0  0
   -4.6039    2.0285    0.6384 H   0  0  0  0  0  0  0  0  0  0  0  0
   -5.1308    0.4766    1.4617 H   0  0  0  0  0  0  0  0  0  0  0  0
   -5.2693    0.6275   -0.3626 H   0  0  0  0  0  0  0  0  0  0  0  0
   -3.2171    0.7119    2.4901 H   0  0  0  0  0  0  0  0  0  0  0  0
   -2.0564    1.6701    1.5503 H   0  0  0  0  0  0  0  0  0  0  0  0
   -1.9859   -1.5924    0.2532 H   0  0  0  0  0  0  0  0  0  0  0  0
   -0.2010   -3.1597    0.6134 H   0  0  0  0  0  0  0  0  0  0  0  0
    1.2510   -0.8483    3.8935 H   0  0  0  0  0  0  0  0  0  0  0  0
   -0.5208    0.7310    3.5557 H   0  0  0  0  0  0  0  0  0  0  0  0
    1.6524   -3.5141    3.5495 H   0  0  0  0  0  0  0  0  0  0  0  0
    1.0028   -4.9321    1.7910 H   0  0  0  0  0  0  0  0  0  0  0  0
    2.7513   -4.6412    1.3734 H   0  0  0  0  0  0  0  0  0  0  0  0
    1.4817   -3.7548    0.4971 H   0  0  0  0  0  0  0  0  0  0  0  0
    5.0339   -2.4851    3.1805 H   0  0  0  0  0  0  0  0  0  0  0  0
  1  2  1  0
  2  3  1  0
  2  4  1  0
  4  5  1  0
  5  6  2  0
  6  7  1  0
  7  8  2  0
  8  9  1  0
  9 10  2  0
  8 11  1  0
 11 12  1  0
 11 13  1  0
 13 14  2  0
 13 15  1  0
 10  5  1  0
  1 16  1  0
  1 17  1  0
  1 18  1  0
  2 19  1  0
  3 20  1  0
  3 21  1  0
  3 22  1  0
  4 23  1  0
  4 24  1  0
  6 25  1  0
  7 26  1  0
  9 27  1  0
 10 28  1  0
 11 29  1  1
 12 30  1  0
 12 31  1  0
 12 32  1  0
 15 33  1  0
M  END
$$$$

     RDKit          3D

 33 33  0  0  0  0  0  0  0  0999 V2000
   -3.3997   -1.0951    0.0711 C   0  0  0  0  0  0  0  0  0  0  0  0
   -3.3005    0.3626    0.4063 C   0  0  0  0  0  0  0  0  0  0  0  0
   -2.2545    1.0021   -0.4829 C   0  0  0  0  0  0  0  0  0  0  0  0
   -4.6056    1.0994    0.2931 C   0  0  0  0  0  0  0  0  0  0  0  0
   -5.6004    0.7053    1.2862 C   0  0  0  0  0  0  0  0  0  0  0  0
   -6.7915    0.1454    0.8858 C   0  0  0  0  0  0  0  0  0  0  0  0
   -7.7427   -0.2327    1.8119 C   0  0  0  0  0  0  0  0  0  0  0  0
   -7.5478   -0.0697    3.1673 C   0  0  0  0  0  0  0  0  0  0  0  0
   -6.3468    0.4934    3.5437 C   0  0  0  0  0  0  0  0  0  0  0  0
   -5.3907    0.8744    2.6290 C   0  0  0  0  0  0  0  0  0  0  0  0
   -8.5104   -0.4473    4.1942 C   0  0  1  0  0  0  0  0  0  0  0  0
   -8.2936    0.4720    5.4088 C   0  0  0  0  0  0  0  0  0  0  0  0
   -9.9168   -0.2831    3.8124 C   0  0  0  0  0  0  0  0  0  0  0  0
  -10.1793    0.3882    2.7846 O   0  0  0  0  0  0  0  0  0  0  0  0
  -10.9902   -0.8140    4.5008 O   0  0  0  0  0  0  0  0  0  0  0  0
   -2.5449   -1.6973    0.3651 H   0  0  0  0  0  0  0  0  0  0  0  0
   -3.5675   -1.2254   -1.0377 H   0  0  0  0  0  0  0  0  0  0  0  0
   -4.3062   -1.5255    0.5456 H   0  0  0  0  0  0  0  0  0  0  0  0
   -2.9461    0.4706    1.4524 H   0  0  0  0  0  0  0  0  0  0  0  0
   -2.7684    1.7323   -1.1328 H   0  0  0  0  0  0  0  0  0  0  0  0
   -1.7982    0.1770   -1.0722 H   0  0  0  0  0  0  0  0  0  0  0  0
   -1.5009    1.4808    0.1854 H   0  0  0  0  0  0  0  0  0  0  0  0
   -4.9519    0.9807   -0.7608 H   0  0  0  0  0  0  0  0  0  0  0  0
   -4.4037    2.1926    0.4137 H   0  0  0  0  0  0  0  0  0  0  0  0
   -7.0018   -0.0088   -0.1835 H   0  0  0  0  0  0  0  0  0  0  0  0
   -8.6534   -0.6649    1.4332 H   0  0  0  0  0  0  0  0  0  0  0  0
   -6.1416    0.6459    4.6242 H   0  0  0  0  0  0  0  0  0  0  0  0
   -4.4768    1.3093    3.0317 H   0  0  0  0  0  0  0  0  0  0  0  0
   -8.3295   -1.4959    4.5011 H   0  0  0  0  0  0  0  0  0  0  0  0
   -8.4499   -0.1100    6.3311 H   0  0  0  0  0  0  0  0  0  0  0  0
   -8.9958    1.3386    5.3718 H   0  0  0  0  0  0  0  0  0  0  0  0
   -7.2719    0.8987    5.3906 H   0  0  0  0  0  0  0  0  0  0  0  0
  -10.8410   -0.9864    5.5005 H   0  0  0  0  0  0  0  0  0  0  0  0
  1  2  1  0
  2  3  1  0
  2  4  1  0
  4  5  1  0
  5  6  2  0
  6  7  1  0
  7  8  2  0
  8  9  1  0
  9 10  2  0
  8 11  1  0
 11 12  1  0
 11 13  1  0
 13 14  2  0
 13 15  1  0
 10  5  1  0
  1 16  1  0
  1 17  1  0
  1 18  1  0
  2 19  1  0
  3 20  1  0
  3 21  1  0
  3 22  1  0
  4 23  1  0
  4 24  1  0
  6 25  1  0
  7 26  1  0
  9 27  1  0
 10 28  1  0
 11 29  1  1
 12 30  1  0
 12 31  1  0
 12 32  1  0
 15 33  1  0
M  END
$$$$

     RDKit          3D

 33 33  0  0  0  0  0  0  0  0999 V2000
   -3.3997   -1.0951    0.0711 C   0  0  0  0  0  0  0  0  0  0  0  0
   -3.3005    0.3626    0.4063 C   0  0  0  0  0  0  0  0  0  0  0  0
   -3.8560    1.1718   -0.7470 C   0  0  0  0  0  0  0  0  0  0  0  0
   -3.9896    0.7367    1.6885 C   0  0  0  0  0  0  0  0  0  0  0  0
   -5.3752    1.1633    1.5179 C   0  0  0  0  0  0  0  0  0  0  0  0
   -6.3153    0.2808    1.0383 C   0  0  0  0  0  0  0  0  0  0  0  0
   -7.6296    0.6682    0.8712 C   0  0  0  0  0  0  0  0  0  0  0  0
   -8.0593    1.9433    1.1730 C   0  0  0  0  0  0  0  0  0  0  0  0
   -7.0990    2.8092    1.6518 C   0  0  0  0  0  0  0  0  0  0  0  0
   -5.7852    2.4340    1.8227 C   0  0  0  0  0  0  0  0  0  0  0  0
   -9.4299    2.4139    1.0193 C   0  0  1  0  0  0  0  0  0  0  0  0
  -10.3579    1.1867    1.0382 C   0  0  0  0  0  0  0  0  0  0  0  0
   -9.9049    3.2929    2.0929 C   0  0  0  0  0  0  0  0  0  0  0  0
   -9.0711    4.0374    2.6644 O   0  0  0  0  0  0  0  0  0  0  0  0
  -11.2122    3.3692    2.5322 O   0  0  0  0  0  0  0  0  0  0  0  0
   -2.5449   -1.6973    0.3651 H   0  0  0  0  0  0  0  0  0  0  0  0
   -3.5675   -1.2254   -1.0377 H   0  0  0  0  0  0  0  0  0  0  0  0
   -4.3062   -1.5255    0.5456 H   0  0  0  0  0  0  0  0  0  0  0  0
   -2.2305    0.6385    0.5097 H   0  0  0  0  0  0  0  0  0  0  0  0
   -3.7727    2.2396   -0.4779 H   0  0  0  0  0  0  0  0  0  0  0  0
   -4.9164    0.8594   -0.8662 H   0  0  0  0  0  0  0  0  0  0  0  0
   -3.2579    0.9111   -1.6516 H   0  0  0  0  0  0  0  0  0  0  0  0
   -3.3447    1.4959    2.1909 H   0  0  0  0  0  0  0  0  0  0  0  0
   -3.9774   -0.1525    2.3664 H   0  0  0  0  0  0  0  0  0  0  0  0
   -6.0295   -0.7504    0.7807 H   0  0  0  0  0  0  0  0  0  0  0  0
   -8.3156   -0.0702    0.4919 H   0  0  0  0  0  0  0  0  0  0  0  0
   -7.3946    3.8480    1.9096 H   0  0  0  0  0  0  0  0  0  0  0  0
   -5.1071    3.1949    2.2072 H   0  0  0  0  0  0  0  0  0  0  0  0
   -9.5357    2.9287    0.0446 H   0  0  0  0  0  0  0  0  0  0  0  0
  -10.6120    0.9137    0.0016 H   0  0  0  0  0  0  0  0  0  0  0  0
  -11.2839    1.4074    1.6206 H   0  0  0  0  0  0  0  0  0  0  0  0
   -9.8634    0.3385    1.5503 H   0  0  0  0  0  0  0  0  0  0  0  0
  -11.3397    3.4924    3.5421 H   0  0  0  0  0  0  0  0  0  0  0  0
  1  2  1  0
  2  3  1  0
  2  4  1  0
  4  5  1  0
  5  6  2  0
  6  7  1  0
  7  8  2  0
  8  9  1  0
  9 10  2  0
  8 11  1  0
 11 12  1  0
 11 13  1  0
 13 14  2  0
 13 15  1  0
 10  5  1  0
  1 16  1  0
  1 17  1  0
  1 18  1  0
  2 19  1  0
  3 20  1  0
  3 21  1  0
  3 22  1  0
  4 23  1  0
  4 24  1  0
  6 25  1  0
  7 26  1  0
  9 27  1  0
 10 28  1  0
 11 29  1  6
 12 30  1  0
 12 31  1  0
 12 32  1  0
 15 33  1  0
M  END
$$$$

     RDKit          3D

 33 33  0  0  0  0  0  0  0  0999 V2000
   -3.3997   -1.0951    0.0711 C   0  0  0  0  0  0  0  0  0  0  0  0
   -3.3005    0.3626    0.4063 C   0  0  0  0  0  0  0  0  0  0  0  0
   -3.7489    0.5703    1.8378 C   0  0  0  0  0  0  0  0  0  0  0  0
   -1.9280    0.9389    0.1984 C   0  0  0  0  0  0  0  0  0  0  0  0
   -1.8712    2.3942    0.2989 C   0  0  0  0  0  0  0  0  0  0  0  0
   -2.9538    3.1550   -0.0777 C   0  0  0  0  0  0  0  0  0  0  0  0
   -2.9165    4.5320    0.0110 C   0  0  0  0  0  0  0  0  0  0  0  0
   -1.8057    5.2042    0.4759 C   0  0  0  0  0  0  0  0  0  0  0  0
   -0.7339    4.4202    0.8470 C   0  0  0  0  0  0  0  0  0  0  0  0
   -0.7597    3.0460    0.7629 C   0  0  0  0  0  0  0  0  0  0  0  0
   -1.7031    6.6531    0.5937 C   0  0  1  0  0  0  0  0  0  0  0  0
   -2.5764    7.2816   -0.5062 C   0  0  0  0  0  0  0  0  0  0  0  0
   -2.1934    7.2057    1.8605 C   0  0  0  0  0  0  0  0  0  0  0  0
   -2.1724    6.4704    2.8777 O   0  0  0  0  0  0  0  0  0  0  0  0
   -2.6830    8.4865    2.0276 O   0  0  0  0  0  0  0  0  0  0  0  0
   -2.5449   -1.6973    0.3651 H   0  0  0  0  0  0  0  0  0  0  0  0
   -3.5675   -1.2254   -1.0377 H   0  0  0  0  0  0  0  0  0  0  0  0
   -4.3062   -1.5255    0.5456 H   0  0  0  0  0  0  0  0  0  0  0  0
   -4.0022    0.9312   -0.2387 H   0  0  0  0  0  0  0  0  0  0  0  0
   -4.6803   -0.0048    1.9839 H   0  0  0  0  0  0  0  0  0  0  0  0
   -3.9172    1.6628    1.9575 H   0  0  0  0  0  0  0  0  0  0  0  0
   -2.9214    0.2182    2.4974 H   0  0  0  0  0  0  0  0  0  0  0  0
   -1.5560    0.5413   -0.7753 H   0  0  0  0  0  0  0  0  0  0  0  0
   -1.2448    0.5072    0.9712 H   0  0  0  0  0  0  0  0  0  0  0  0
   -3.8677    2.6726   -0.4563 H   0  0  0  0  0  0  0  0  0  0  0  0
   -3.7967    5.0689   -0.2996 H   0  0  0  0  0  0  0  0  0  0  0  0
    0.1848    4.9138    1.2281 H   0  0  0  0  0  0  0  0  0  0  0  0
    0.1401    2.5212    1.0817 H   0  0  0  0  0  0  0  0  0  0  0  0
   -0.6512    6.9620    0.4368 H   0  0  0  0  0  0  0  0  0  0  0  0
   -3.5515    6.7693   -0.5259 H   0  0  0  0  0  0  0  0  0  0  0  0
   -2.0729    7.1982   -1.4987 H   0  0  0  0  0  0  0  0  0  0  0  0
   -2.7132    8.3640   -0.3170 H   0  0  0  0  0  0  0  0  0  0  0  0
   -3.0715    8.9311    1.1893 H   0  0  0  0  0  0  0  0  0  0  0  0
  1  2  1  0
  2  3  1  0
  2  4  1  0
  4  5  1  0
  5  6  2  0
  6  7  1  0
  7  8  2  0
  8  9  1  0
  9 10  2  0
  8 11  1  0
 11 12  1  0
 11 13  1  0
 13 14  2  0
 13 15  1  0
 10  5  1  0
  1 16  1  0
  1 17  1  0
  1 18  1  0
  2 19  1  0
  3 20  1  0
  3 21  1  0
  3 22  1  0
  4 23  1  0
  4 24  1  0
  6 25  1  0
  7 26  1  0
  9 27  1  0
 10 28  1  0
 11 29  1  6
 12 30  1  0
 12 31  1  0
 12 32  1  0
 15 33  1  0
M  END
$$$$

     RDKit          3D

 33 33  0  0  0  0  0  0  0  0999 V2000
   -3.3997   -1.0951    0.0711 C   0  0  0  0  0  0  0  0  0  0  0  0
   -3.3005    0.3626    0.4063 C   0  0  0  0  0  0  0  0  0  0  0  0
   -2.0759    0.9412   -0.2713 C   0  0  0  0  0  0  0  0  0  0  0  0
   -4.5251    1.1525    0.0383 C   0  0  0  0  0  0  0  0  0  0  0  0
   -4.2425    2.3834   -0.6940 C   0  0  0  0  0  0  0  0  0  0  0  0
   -5.2752    3.1891   -1.1147 C   0  0  0  0  0  0  0  0  0  0  0  0
   -5.0252    4.3561   -1.8082 C   0  0  0  0  0  0  0  0  0  0  0  0
   -3.7437    4.7665   -2.1095 C   0  0  0  0  0  0  0  0  0  0  0  0
   -2.7260    3.9426   -1.6775 C   0  0  0  0  0  0  0  0  0  0  0  0
   -2.9632    2.7763   -0.9850 C   0  0  0  0  0  0  0  0  0  0  0  0
   -3.4134    5.9853   -2.8370 C   0  0  1  0  0  0  0  0  0  0  0  0
   -2.7031    5.5817   -4.1409 C   0  0  0  0  0  0  0  0  0  0  0  0
   -4.5675    6.7943   -3.2423 C   0  0  0  0  0  0  0  0  0  0  0  0
   -4.9222    6.7629   -4.4461 O   0  0  0  0  0  0  0  0  0  0  0  0
   -5.3056    7.5985   -2.3960 O   0  0  0  0  0  0  0  0  0  0  0  0
   -2.5449   -1.6973    0.3651 H   0  0  0  0  0  0  0  0  0  0  0  0
   -3.5675   -1.2254   -1.0377 H   0  0  0  0  0  0  0  0  0  0  0  0
   -4.3062   -1.5255    0.5456 H   0  0  0  0  0  0  0  0  0  0  0  0
   -3.1482    0.4734    1.4999 H   0  0  0  0  0  0  0  0  0  0  0  0
   -1.2313    0.2563   -0.0786 H   0  0  0  0  0  0  0  0  0  0  0  0
   -1.9077    1.9403    0.1867 H   0  0  0  0  0  0  0  0  0  0  0  0
   -2.3120    1.0336   -1.3574 H   0  0  0  0  0  0  0  0  0  0  0  0
   -5.0999    1.3129    0.9809 H   0  0  0  0  0  0  0  0  0  0  0  0
   -5.1806    0.5083   -0.5985 H   0  0  0  0  0  0  0  0  0  0  0  0
   -6.3189    2.9115   -0.9024 H   0  0  0  0  0  0  0  0  0  0  0  0
   -5.8775    4.9416   -2.1090 H   0  0  0  0  0  0  0  0  0  0  0  0
   -1.6755    4.2290   -1.8952 H   0  0  0  0  0  0  0  0  0  0  0  0
   -2.0884    2.1983   -0.6897 H   0  0  0  0  0  0  0  0  0  0  0  0
   -2.7234    6.6020   -2.2288 H   0  0  0  0  0  0  0  0  0  0  0  0
   -3.3362    5.8657   -4.9965 H   0  0  0  0  0  0  0  0  0  0  0  0
   -2.5035    4.4837   -4.1521 H   0  0  0  0  0  0  0  0  0  0  0  0
   -1.7156    6.0778   -4.2103 H   0  0  0  0  0  0  0  0  0  0  0  0
   -5.9312    8.2723   -2.8497 H   0  0  0  0  0  0  0  0  0  0  0  0
  1  2  1  0
  2  3  1  0
  2  4  1  0
  4  5  1  0
  5  6  2  0
  6  7  1  0
  7  8  2  0
  8  9  1  0
  9 10  2  0
  8 11  1  0
 11 12  1  0
 11 13  1  0
 13 14  2  0
 13 15  1  0
 10  5  1  0
  1 16  1  0
  1 17  1  0
  1 18  1  0
  2 19  1  0
  3 20  1  0
  3 21  1  0
  3 22  1  0
  4 23  1  0
  4 24  1  0
  6 25  1  0
  7 26  1  0
  9 27  1  0
 10 28  1  0
 11 29  1  1
 12 30  1  0
 12 31  1  0
 12 32  1  0
 15 33  1  0
M  END
$$$$

     RDKit          3D

 33 33  0  0  0  0  0  0  0  0999 V2000
   -3.3997   -1.0951    0.0711 C   0  0  0  0  0  0  0  0  0  0  0  0
   -3.3005    0.3626    0.4063 C   0  0  0  0  0  0  0  0  0  0  0  0
   -4.6950    0.9171    0.6094 C   0  0  0  0  0  0  0  0  0  0  0  0
   -2.4424    0.6503    1.6063 C   0  0  0  0  0  0  0  0  0  0  0  0
   -3.0785    0.3373    2.8825 C   0  0  0  0  0  0  0  0  0  0  0  0
   -3.9514   -0.7217    2.9775 C   0  0  0  0  0  0  0  0  0  0  0  0
   -4.5612   -1.0311    4.1766 C   0  0  0  0  0  0  0  0  0  0  0  0
   -4.3280   -0.3025    5.3240 C   0  0  0  0  0  0  0  0  0  0  0  0
   -3.4498    0.7535    5.2035 C   0  0  0  0  0  0  0  0  0  0  0  0
   -2.8356    1.0715    4.0128 C   0  0  0  0  0  0  0  0  0  0  0  0
   -4.9389   -0.5770    6.6183 C   0  0  1  0  0  0  0  0  0  0  0  0
   -4.3206   -1.8738    7.1693 C   0  0  0  0  0  0  0  0  0  0  0  0
   -4.7030    0.4466    7.6417 C   0  0  0  0  0  0  0  0  0  0  0  0
   -5.2635    0.3125    8.7569 O   0  0  0  0  0  0  0  0  0  0  0  0
   -3.9038    1.5609    7.4760 O   0  0  0  0  0  0  0  0  0  0  0  0
   -2.5449   -1.6973    0.3651 H   0  0  0  0  0  0  0  0  0  0  0  0
   -3.5675   -1.2254   -1.0377 H   0  0  0  0  0  0  0  0  0  0  0  0
   -4.3062   -1.5255    0.5456 H   0  0  0  0  0  0  0  0  0  0  0  0
   -2.8594    0.9035   -0.4566 H   0  0  0  0  0  0  0  0  0  0  0  0
   -4.5998    1.9996    0.8064 H   0  0  0  0  0  0  0  0  0  0  0  0
   -5.1225    0.3765    1.4819 H   0  0  0  0  0  0  0  0  0  0  0  0
   -5.2747    0.7009   -0.3185 H   0  0  0  0  0  0  0  0  0  0  0  0
   -2.1113    1.7120    1.5182 H   0  0  0  0  0  0  0  0  0  0  0  0
   -1.5067    0.0438    1.5228 H   0  0  0  0  0  0  0  0  0  0  0  0
   -4.1755   -1.3386    2.0939 H   0  0  0  0  0  0  0  0  0  0  0  0
   -5.2337   -1.8721    4.1838 H   0  0  0  0  0  0  0  0  0  0  0  0
   -3.2285    1.3715    6.0991 H   0  0  0  0  0  0  0  0  0  0  0  0
   -2.1592    1.9252    4.0260 H   0  0  0  0  0  0  0  0  0  0  0  0
   -6.0283   -0.7264    6.4874 H   0  0  0  0  0  0  0  0  0  0  0  0
   -4.6608   -2.7223    6.5546 H   0  0  0  0  0  0  0  0  0  0  0  0
   -4.6144   -2.0231    8.2355 H   0  0  0  0  0  0  0  0  0  0  0  0
   -3.2152   -1.8079    7.1577 H   0  0  0  0  0  0  0  0  0  0  0  0
   -3.4015    1.6242    6.5843 H   0  0  0  0  0  0  0  0  0  0  0  0
  1  2  1  0
  2  3  1  0
  2  4  1  0
  4  5  1  0
  5  6  2  0
  6  7  1  0
  7  8  2  0
  8  9  1  0
  9 10  2  0
  8 11  1  0
 11 12  1  0
 11 13  1  0
 13 14  2  0
 13 15  1  0
 10  5  1  0
  1 16  1  0
  1 17  1  0
  1 18  1  0
  2 19  1  0
  3 20  1  0
  3 21  1  0
  3 22  1  0
  4 23  1  0
  4 24  1  0
  6 25  1  0
  7 26  1  0
  9 27  1  0
 10 28  1  0
 11 29  1  6
 12 30  1  0
 12 31  1  0
 12 32  1  0
 15 33  1  0
M  END
$$$$

     RDKit          3D

 33 33  0  0  0  0  0  0  0  0999 V2000
   -3.3997   -1.0951    0.0711 C   0  0  0  0  0  0  0  0  0  0  0  0
   -3.3005    0.3626    0.4063 C   0  0  0  0  0  0  0  0  0  0  0  0
   -4.4778    1.0903   -0.2084 C   0  0  0  0  0  0  0  0  0  0  0  0
   -3.2252    0.6403    1.8815 C   0  0  0  0  0  0  0  0  0  0  0  0
   -3.5667   -0.5039    2.7214 C   0  0  0  0  0  0  0  0  0  0  0  0
   -4.8711   -0.9322    2.8077 C   0  0  0  0  0  0  0  0  0  0  0  0
   -5.2108   -2.0123    3.5972 C   0  0  0  0  0  0  0  0  0  0  0  0
   -4.2706   -2.7065    4.3291 C   0  0  0  0  0  0  0  0  0  0  0  0
   -2.9707   -2.2585    4.2263 C   0  0  0  0  0  0  0  0  0  0  0  0
   -2.6200   -1.1823    3.4421 C   0  0  0  0  0  0  0  0  0  0  0  0
   -4.5639   -3.8527    5.1799 C   0  0  1  0  0  0  0  0  0  0  0  0
   -5.4126   -3.3593    6.3647 C   0  0  0  0  0  0  0  0  0  0  0  0
   -5.3479   -4.9131    4.5385 C   0  0  0  0  0  0  0  0  0  0  0  0
   -6.4223   -5.2694    5.0813 O   0  0  0  0  0  0  0  0  0  0  0  0
   -4.9957   -5.5603    3.3702 O   0  0  0  0  0  0  0  0  0  0  0  0
   -2.5449   -1.6973    0.3651 H   0  0  0  0  0  0  0  0  0  0  0  0
   -3.5675   -1.2254   -1.0377 H   0  0  0  0  0  0  0  0  0  0  0  0
   -4.3062   -1.5255    0.5456 H   0  0  0  0  0  0  0  0  0  0  0  0
   -2.3832    0.7797   -0.0589 H   0  0  0  0  0  0  0  0  0  0  0  0
   -5.3933    0.7306    0.2938 H   0  0  0  0  0  0  0  0  0  0  0  0
   -4.4743    0.8332   -1.2901 H   0  0  0  0  0  0  0  0  0  0  0  0
   -4.3075    2.1819   -0.0559 H   0  0  0  0  0  0  0  0  0  0  0  0
   -3.8553    1.5409    2.0720 H   0  0  0  0  0  0  0  0  0  0  0  0
   -2.1810    0.9561    2.1268 H   0  0  0  0  0  0  0  0  0  0  0  0
   -5.6641   -0.4161    2.2453 H   0  0  0  0  0  0  0  0  0  0  0  0
   -6.2492   -2.2968    3.6211 H   0  0  0  0  0  0  0  0  0  0  0  0
   -2.1759   -2.7840    4.7965 H   0  0  0  0  0  0  0  0  0  0  0  0
   -1.5653   -0.9103    3.4311 H   0  0  0  0  0  0  0  0  0  0  0  0
   -3.6168   -4.2751    5.5685 H   0  0  0  0  0  0  0  0  0  0  0  0
   -5.1147   -3.9082    7.2721 H   0  0  0  0  0  0  0  0  0  0  0  0
   -6.4984   -3.5119    6.1564 H   0  0  0  0  0  0  0  0  0  0  0  0
   -5.2741   -2.2702    6.5098 H   0  0  0  0  0  0  0  0  0  0  0  0
   -4.4618   -5.0052    2.6933 H   0  0  0  0  0  0  0  0  0  0  0  0
  1  2  1  0
  2  3  1  0
  2  4  1  0
  4  5  1  0
  5  6  2  0
  6  7  1  0
  7  8  2  0
  8  9  1  0
  9 10  2  0
  8 11  1  0
 11 12  1  0
 11 13  1  0
 13 14  2  0
 13 15  1  0
 10  5  1  0
  1 16  1  0
  1 17  1  0
  1 18  1  0
  2 19  1  0
  3 20  1  0
  3 21  1  0
  3 22  1  0
  4 23  1  0
  4 24  1  0
  6 25  1  0
  7 26  1  0
  9 27  1  0
 10 28  1  0
 11 29  1  1
 12 30  1  0
 12 31  1  0
 12 32  1  0
 15 33  1  0
M  END
$$$$

     RDKit          3D

 33 33  0  0  0  0  0  0  0  0999 V2000
   -3.3997   -1.0951    0.0711 C   0  0  0  0  0  0  0  0  0  0  0  0
   -3.3005    0.3626    0.4063 C   0  0  0  0  0  0  0  0  0  0  0  0
   -3.3127    1.1649   -0.8781 C   0  0  0  0  0  0  0  0  0  0  0  0
   -4.3793    0.8444    1.3351 C   0  0  0  0  0  0  0  0  0  0  0  0
   -5.7335    0.6629    0.8208 C   0  0  0  0  0  0  0  0  0  0  0  0
   -6.7314    0.2054    1.6498 C   0  0  0  0  0  0  0  0  0  0  0  0
   -8.0170    0.0283    1.1793 C   0  0  0  0  0  0  0  0  0  0  0  0
   -8.3596    0.2980   -0.1289 C   0  0  0  0  0  0  0  0  0  0  0  0
   -7.3426    0.7551   -0.9401 C   0  0  0  0  0  0  0  0  0  0  0  0
   -6.0567    0.9356   -0.4819 C   0  0  0  0  0  0  0  0  0  0  0  0
   -9.6957    0.1322   -0.6866 C   0  0  1  0  0  0  0  0  0  0  0  0
  -10.6037   -0.4361    0.4179 C   0  0  0  0  0  0  0  0  0  0  0  0
  -10.3363    1.3734   -1.1338 C   0  0  0  0  0  0  0  0  0  0  0  0
  -11.4461    1.2936   -1.7152 O   0  0  0  0  0  0  0  0  0  0  0  0
   -9.8109    2.6396   -0.9651 O   0  0  0  0  0  0  0  0  0  0  0  0
   -2.5449   -1.6973    0.3651 H   0  0  0  0  0  0  0  0  0  0  0  0
   -3.5675   -1.2254   -1.0377 H   0  0  0  0  0  0  0  0  0  0  0  0
   -4.3062   -1.5255    0.5456 H   0  0  0  0  0  0  0  0  0  0  0  0
   -2.3251    0.5554    0.8993 H   0  0  0  0  0  0  0  0  0  0  0  0
   -3.8040    0.5499   -1.6527 H   0  0  0  0  0  0  0  0  0  0  0  0
   -2.2490    1.3696   -1.1292 H   0  0  0  0  0  0  0  0  0  0  0  0
   -3.8642    2.1119   -0.6707 H   0  0  0  0  0  0  0  0  0  0  0  0
   -4.1347    1.9023    1.5915 H   0  0  0  0  0  0  0  0  0  0  0  0
   -4.2915    0.2820    2.2976 H   0  0  0  0  0  0  0  0  0  0  0  0
   -6.5160   -0.0262    2.7040 H   0  0  0  0  0  0  0  0  0  0  0  0
   -8.7516   -0.3325    1.8792 H   0  0  0  0  0  0  0  0  0  0  0  0
   -7.5674    0.9867   -2.0025 H   0  0  0  0  0  0  0  0  0  0  0  0
   -5.3285    1.3011   -1.2048 H   0  0  0  0  0  0  0  0  0  0  0  0
   -9.6578   -0.5889   -1.5262 H   0  0  0  0  0  0  0  0  0  0  0  0
  -10.4189   -1.5180    0.5122 H   0  0  0  0  0  0  0  0  0  0  0  0
  -11.6765   -0.2441    0.1776 H   0  0  0  0  0  0  0  0  0  0  0  0
  -10.4045    0.0745    1.3801 H   0  0  0  0  0  0  0  0  0  0  0  0
  -10.0897    3.3376   -1.6625 H   0  0  0  0  0  0  0  0  0  0  0  0
  1  2  1  0
  2  3  1  0
  2  4  1  0
  4  5  1  0
  5  6  2  0
  6  7  1  0
  7  8  2  0
  8  9  1  0
  9 10  2  0
  8 11  1  0
 11 12  1  0
 11 13  1  0
 13 14  2  0
 13 15  1  0
 10  5  1  0
  1 16  1  0
  1 17  1  0
  1 18  1  0
  2 19  1  0
  3 20  1  0
  3 21  1  0
  3 22  1  0
  4 23  1  0
  4 24  1  0
  6 25  1  0
  7 26  1  0
  9 27  1  0
 10 28  1  0
 11 29  1  6
 12 30  1  0
 12 31  1  0
 12 32  1  0
 15 33  1  0
M  END
$$$$

     RDKit          3D

 33 33  0  0  0  0  0  0  0  0999 V2000
   -3.3997   -1.0951    0.0711 C   0  0  0  0  0  0  0  0  0  0  0  0
   -3.3005    0.3626    0.4063 C   0  0  0  0  0  0  0  0  0  0  0  0
   -3.5480    0.5448    1.8892 C   0  0  0  0  0  0  0  0  0  0  0  0
   -1.9903    0.9856    0.0134 C   0  0  0  0  0  0  0  0  0  0  0  0
   -1.3786    0.3903   -1.1709 C   0  0  0  0  0  0  0  0  0  0  0  0
   -0.2958   -0.4483   -1.0412 C   0  0  0  0  0  0  0  0  0  0  0  0
    0.2942   -1.0194   -2.1508 C   0  0  0  0  0  0  0  0  0  0  0  0
   -0.1674   -0.7802   -3.4280 C   0  0  0  0  0  0  0  0  0  0  0  0
   -1.2533    0.0632   -3.5322 C   0  0  0  0  0  0  0  0  0  0  0  0
   -1.8499    0.6386   -2.4326 C   0  0  0  0  0  0  0  0  0  0  0  0
    0.4098   -1.3511   -4.6382 C   0  0  1  0  0  0  0  0  0  0  0  0
    1.7600   -0.6583   -4.8922 C   0  0  0  0  0  0  0  0  0  0  0  0
    0.7025   -2.7863   -4.5650 C   0  0  0  0  0  0  0  0  0  0  0  0
    1.6823   -3.1588   -3.8744 O   0  0  0  0  0  0  0  0  0  0  0  0
   -0.0221   -3.7744   -5.2026 O   0  0  0  0  0  0  0  0  0  0  0  0
   -2.5449   -1.6973    0.3651 H   0  0  0  0  0  0  0  0  0  0  0  0
   -3.5675   -1.2254   -1.0377 H   0  0  0  0  0  0  0  0  0  0  0  0
   -4.3062   -1.5255    0.5456 H   0  0  0  0  0  0  0  0  0  0  0  0
   -4.1042    0.9123   -0.1262 H   0  0  0  0  0  0  0  0  0  0  0  0
   -4.4146   -0.0824    2.1637 H   0  0  0  0  0  0  0  0  0  0  0  0
   -3.7586    1.6259    2.0407 H   0  0  0  0  0  0  0  0  0  0  0  0
   -2.6152    0.2406    2.4195 H   0  0  0  0  0  0  0  0  0  0  0  0
   -1.3372    0.9587    0.9175 H   0  0  0  0  0  0  0  0  0  0  0  0
   -2.1643    2.0713   -0.1900 H   0  0  0  0  0  0  0  0  0  0  0  0
    0.1156   -0.6753   -0.0459 H   0  0  0  0  0  0  0  0  0  0  0  0
    1.1381   -1.6663   -1.9809 H   0  0  0  0  0  0  0  0  0  0  0  0
   -1.6629    0.2877   -4.5395 H   0  0  0  0  0  0  0  0  0  0  0  0
   -2.7018    1.2895   -2.6252 H   0  0  0  0  0  0  0  0  0  0  0  0
   -0.2620   -1.1529   -5.4959 H   0  0  0  0  0  0  0  0  0  0  0  0
    2.5664   -1.4046   -4.8121 H   0  0  0  0  0  0  0  0  0  0  0  0
    1.9189    0.1666   -4.1576 H   0  0  0  0  0  0  0  0  0  0  0  0
    1.7682   -0.1877   -5.8946 H   0  0  0  0  0  0  0  0  0  0  0  0
    0.1974   -3.9233   -6.1931 H   0  0  0  0  0  0  0  0  0  0  0  0
  1  2  1  0
  2  3  1  0
  2  4  1  0
  4  5  1  0
  5  6  2  0
  6  7  1  0
  7  8  2  0
  8  9  1  0
  9 10  2  0
  8 11  1  0
 11 12  1  0
 11 13  1  0
 13 14  2  0
 13 15  1  0
 10  5  1  0
  1 16  1  0
  1 17  1  0
  1 18  1  0
  2 19  1  0
  3 20  1  0
  3 21  1  0
  3 22  1  0
  4 23  1  0
  4 24  1  0
  6 25  1  0
  7 26  1  0
  9 27  1  0
 10 28  1  0
 11 29  1  6
 12 30  1  0
 12 31  1  0
 12 32  1  0
 15 33  1  0
M  END
$$$$

     RDKit          3D

 33 33  0  0  0  0  0  0  0  0999 V2000
   -3.3997   -1.0951    0.0711 C   0  0  0  0  0  0  0  0  0  0  0  0
   -3.3005    0.3626    0.4063 C   0  0  0  0  0  0  0  0  0  0  0  0
   -1.8884    0.8359    0.1312 C   0  0  0  0  0  0  0  0  0  0  0  0
   -4.2928    1.2207   -0.3272 C   0  0  0  0  0  0  0  0  0  0  0  0
   -4.7012    2.4167    0.4035 C   0  0  0  0  0  0  0  0  0  0  0  0
   -5.8121    3.1237    0.0049 C   0  0  0  0  0  0  0  0  0  0  0  0
   -6.2118    4.2565    0.6848 C   0  0  0  0  0  0  0  0  0  0  0  0
   -5.5255    4.7293    1.7835 C   0  0  0  0  0  0  0  0  0  0  0  0
   -4.4161    4.0040    2.1635 C   0  0  0  0  0  0  0  0  0  0  0  0
   -4.0080    2.8726    1.4931 C   0  0  0  0  0  0  0  0  0  0  0  0
   -5.8950    5.9166    2.5434 C   0  0  1  0  0  0  0  0  0  0  0  0
   -5.5249    5.6712    4.0166 C   0  0  0  0  0  0  0  0  0  0  0  0
   -5.1928    7.1432    2.1520 C   0  0  0  0  0  0  0  0  0  0  0  0
   -4.1317    7.4387    2.7540 O   0  0  0  0  0  0  0  0  0  0  0  0
   -5.6098    8.0112    1.1617 O   0  0  0  0  0  0  0  0  0  0  0  0
   -2.5449   -1.6973    0.3651 H   0  0  0  0  0  0  0  0  0  0  0  0
   -3.5675   -1.2254   -1.0377 H   0  0  0  0  0  0  0  0  0  0  0  0
   -4.3062   -1.5255    0.5456 H   0  0  0  0  0  0  0  0  0  0  0  0
   -3.4815    0.4977    1.4928 H   0  0  0  0  0  0  0  0  0  0  0  0
   -1.9557    1.7558   -0.4761 H   0  0  0  0  0  0  0  0  0  0  0  0
   -1.3851    0.0136   -0.4225 H   0  0  0  0  0  0  0  0  0  0  0  0
   -1.4005    1.0106    1.1188 H   0  0  0  0  0  0  0  0  0  0  0  0
   -5.1428    0.5571   -0.6130 H   0  0  0  0  0  0  0  0  0  0  0  0
   -3.8330    1.5409   -1.2949 H   0  0  0  0  0  0  0  0  0  0  0  0
   -6.3988    2.7929   -0.8656 H   0  0  0  0  0  0  0  0  0  0  0  0
   -7.0895    4.7639    0.3218 H   0  0  0  0  0  0  0  0  0  0  0  0
   -3.8291    4.3436    3.0427 H   0  0  0  0  0  0  0  0  0  0  0  0
   -3.1183    2.3738    1.8755 H   0  0  0  0  0  0  0  0  0  0  0  0
   -6.9884    6.0757    2.4699 H   0  0  0  0  0  0  0  0  0  0  0  0
   -5.0781    4.6687    4.1116 H   0  0  0  0  0  0  0  0  0  0  0  0
   -6.4291    5.7573    4.6650 H   0  0  0  0  0  0  0  0  0  0  0  0
   -4.8151    6.4448    4.3688 H   0  0  0  0  0  0  0  0  0  0  0  0
   -5.7933    7.5908    0.2447 H   0  0  0  0  0  0  0  0  0  0  0  0
  1  2  1  0
  2  3  1  0
  2  4  1  0
  4  5  1  0
  5  6  2  0
  6  7  1  0
  7  8  2  0
  8  9  1  0
  9 10  2  0
  8 11  1  0
 11 12  1  0
 11 13  1  0
 13 14  2  0
 13 15  1  0
 10  5  1  0
  1 16  1  0
  1 17  1  0
  1 18  1  0
  2 19  1  0
  3 20  1  0
  3 21  1  0
  3 22  1  0
  4 23  1  0
  4 24  1  0
  6 25  1  0
  7 26  1  0
  9 27  1  0
 10 28  1  0
 11 29  1  1
 12 30  1  0
 12 31  1  0
 12 32  1  0
 15 33  1  0
M  END
$$$$

     RDKit          3D

 33 33  0  0  0  0  0  0  0  0999 V2000
   -3.3997   -1.0951    0.0711 C   0  0  0  0  0  0  0  0  0  0  0  0
   -3.3005    0.3626    0.4063 C   0  0  0  0  0  0  0  0  0  0  0  0
   -2.0552    0.5932    1.2367 C   0  0  0  0  0  0  0  0  0  0  0  0
   -3.3006    1.2615   -0.7983 C   0  0  0  0  0  0  0  0  0  0  0  0
   -1.9994    1.8489   -1.1037 C   0  0  0  0  0  0  0  0  0  0  0  0
   -1.4112    2.7221   -0.2183 C   0  0  0  0  0  0  0  0  0  0  0  0
   -0.1814    3.2863   -0.4917 C   0  0  0  0  0  0  0  0  0  0  0  0
    0.5092    3.0055   -1.6518 C   0  0  0  0  0  0  0  0  0  0  0  0
   -0.1005    2.1279   -2.5231 C   0  0  0  0  0  0  0  0  0  0  0  0
   -1.3269    1.5591   -2.2610 C   0  0  0  0  0  0  0  0  0  0  0  0
    1.8085    3.5668   -1.9992 C   0  0  1  0  0  0  0  0  0  0  0  0
    1.6864    5.1003   -1.9682 C   0  0  0  0  0  0  0  0  0  0  0  0
    2.8937    3.2317   -1.0715 C   0  0  0  0  0  0  0  0  0  0  0  0
    2.6031    2.6287   -0.0095 O   0  0  0  0  0  0  0  0  0  0  0  0
    4.2272    3.5295   -1.2740 O   0  0  0  0  0  0  0  0  0  0  0  0
   -2.5449   -1.6973    0.3651 H   0  0  0  0  0  0  0  0  0  0  0  0
   -3.5675   -1.2254   -1.0377 H   0  0  0  0  0  0  0  0  0  0  0  0
   -4.3062   -1.5255    0.5456 H   0  0  0  0  0  0  0  0  0  0  0  0
   -4.1677    0.6493    1.0365 H   0  0  0  0  0  0  0  0  0  0  0  0
   -1.2103    0.1100    0.7149 H   0  0  0  0  0  0  0  0  0  0  0  0
   -2.2485    0.1256    2.2268 H   0  0  0  0  0  0  0  0  0  0  0  0
   -1.9228    1.6963    1.3342 H   0  0  0  0  0  0  0  0  0  0  0  0
   -4.1068    2.0156   -0.6372 H   0  0  0  0  0  0  0  0  0  0  0  0
   -3.6316    0.6633   -1.6832 H   0  0  0  0  0  0  0  0  0  0  0  0
   -1.9166    2.9830    0.7241 H   0  0  0  0  0  0  0  0  0  0  0  0
    0.2241    3.9617    0.2424 H   0  0  0  0  0  0  0  0  0  0  0  0
    0.4152    1.8693   -3.4718 H   0  0  0  0  0  0  0  0  0  0  0  0
   -1.7199    0.8788   -3.0155 H   0  0  0  0  0  0  0  0  0  0  0  0
    2.0850    3.2496   -3.0235 H   0  0  0  0  0  0  0  0  0  0  0  0
    2.6724    5.5337   -1.7370 H   0  0  0  0  0  0  0  0  0  0  0  0
    0.9342    5.4159   -1.2065 H   0  0  0  0  0  0  0  0  0  0  0  0
    1.3186    5.4765   -2.9426 H   0  0  0  0  0  0  0  0  0  0  0  0
    4.4712    3.8851   -2.2042 H   0  0  0  0  0  0  0  0  0  0  0  0
  1  2  1  0
  2  3  1  0
  2  4  1  0
  4  5  1  0
  5  6  2  0
  6  7  1  0
  7  8  2  0
  8  9  1  0
  9 10  2  0
  8 11  1  0
 11 12  1  0
 11 13  1  0
 13 14  2  0
 13 15  1  0
 10  5  1  0
  1 16  1  0
  1 17  1  0
  1 18  1  0
  2 19  1  0
  3 20  1  0
  3 21  1  0
  3 22  1  0
  4 23  1  0
  4 24  1  0
  6 25  1  0
  7 26  1  0
  9 27  1  0
 10 28  1  0
 11 29  1  6
 12 30  1  0
 12 31  1  0
 12 32  1  0
 15 33  1  0
M  END
$$$$

     RDKit          3D

 33 33  0  0  0  0  0  0  0  0999 V2000
   -3.3997   -1.0951    0.0711 C   0  0  0  0  0  0  0  0  0  0  0  0
   -3.3005    0.3626    0.4063 C   0  0  0  0  0  0  0  0  0  0  0  0
   -4.4528    1.0973   -0.2463 C   0  0  0  0  0  0  0  0  0  0  0  0
   -3.2693    0.6430    1.8825 C   0  0  0  0  0  0  0  0  0  0  0  0
   -4.5882    0.8138    2.4846 C   0  0  0  0  0  0  0  0  0  0  0  0
   -5.6216    1.3413    1.7455 C   0  0  0  0  0  0  0  0  0  0  0  0
   -6.8746    1.5093    2.2996 C   0  0  0  0  0  0  0  0  0  0  0  0
   -7.1485    1.1609    3.6055 C   0  0  0  0  0  0  0  0  0  0  0  0
   -6.0971    0.6345    4.3257 C   0  0  0  0  0  0  0  0  0  0  0  0
   -4.8431    0.4623    3.7836 C   0  0  0  0  0  0  0  0  0  0  0  0
   -8.4473    1.3127    4.2487 C   0  0  1  0  0  0  0  0  0  0  0  0
   -8.9472    2.7422    3.9766 C   0  0  0  0  0  0  0  0  0  0  0  0
   -9.4943    0.4183    3.7441 C   0  0  0  0  0  0  0  0  0  0  0  0
   -9.8414   -0.5535    4.4589 O   0  0  0  0  0  0  0  0  0  0  0  0
  -10.1381    0.5603    2.5304 O   0  0  0  0  0  0  0  0  0  0  0  0
   -2.5449   -1.6973    0.3651 H   0  0  0  0  0  0  0  0  0  0  0  0
   -3.5675   -1.2254   -1.0377 H   0  0  0  0  0  0  0  0  0  0  0  0
   -4.3062   -1.5255    0.5456 H   0  0  0  0  0  0  0  0  0  0  0  0
   -2.3662    0.7721   -0.0309 H   0  0  0  0  0  0  0  0  0  0  0  0
   -4.3454    2.1699   -0.0061 H   0  0  0  0  0  0  0  0  0  0  0  0
   -5.3826    0.6698    0.1882 H   0  0  0  0  0  0  0  0  0  0  0  0
   -4.3941    0.8968   -1.3419 H   0  0  0  0  0  0  0  0  0  0  0  0
   -2.5920    1.5172    2.0299 H   0  0  0  0  0  0  0  0  0  0  0  0
   -2.7593   -0.2118    2.3920 H   0  0  0  0  0  0  0  0  0  0  0  0
   -5.4611    1.6374    0.6976 H   0  0  0  0  0  0  0  0  0  0  0  0
   -7.6398    1.9274    1.6678 H   0  0  0  0  0  0  0  0  0  0  0  0
   -6.2663    0.3381    5.3823 H   0  0  0  0  0  0  0  0  0  0  0  0
   -4.0830    0.0382    4.4385 H   0  0  0  0  0  0  0  0  0  0  0  0
   -8.3358    1.1736    5.3416 H   0  0  0  0  0  0  0  0  0  0  0  0
   -8.8756    3.3298    4.9057 H   0  0  0  0  0  0  0  0  0  0  0  0
  -10.0006    2.7231    3.6085 H   0  0  0  0  0  0  0  0  0  0  0  0
   -8.3463    3.2136    3.1748 H   0  0  0  0  0  0  0  0  0  0  0  0
  -10.9300    1.2116    2.5160 H   0  0  0  0  0  0  0  0  0  0  0  0
  1  2  1  0
  2  3  1  0
  2  4  1  0
  4  5  1  0
  5  6  2  0
  6  7  1  0
  7  8  2  0
  8  9  1  0
  9 10  2  0
  8 11  1  0
 11 12  1  0
 11 13  1  0
 13 14  2  0
 13 15  1  0
 10  5  1  0
  1 16  1  0
  1 17  1  0
  1 18  1  0
  2 19  1  0
  3 20  1  0
  3 21  1  0
  3 22  1  0
  4 23  1  0
  4 24  1  0
  6 25  1  0
  7 26  1  0
  9 27  1  0
 10 28  1  0
 11 29  1  1
 12 30  1  0
 12 31  1  0
 12 32  1  0
 15 33  1  0
M  END
$$$$

     RDKit          3D

 33 33  0  0  0  0  0  0  0  0999 V2000
   -3.3997   -1.0951    0.0711 C   0  0  0  0  0  0  0  0  0  0  0  0
   -3.3005    0.3626    0.4063 C   0  0  0  0  0  0  0  0  0  0  0  0
   -1.8391    0.7554    0.4671 C   0  0  0  0  0  0  0  0  0  0  0  0
   -4.0433    1.2546   -0.5485 C   0  0  0  0  0  0  0  0  0  0  0  0
   -5.2659    0.6652   -1.0860 C   0  0  0  0  0  0  0  0  0  0  0  0
   -6.3888    1.4412   -1.2581 C   0  0  0  0  0  0  0  0  0  0  0  0
   -7.5528    0.8995   -1.7650 C   0  0  0  0  0  0  0  0  0  0  0  0
   -7.6459   -0.4299   -2.1195 C   0  0  0  0  0  0  0  0  0  0  0  0
   -6.5079   -1.1869   -1.9379 C   0  0  0  0  0  0  0  0  0  0  0  0
   -5.3413   -0.6575   -1.4331 C   0  0  0  0  0  0  0  0  0  0  0  0
   -8.8432   -1.0617   -2.6591 C   0  0  1  0  0  0  0  0  0  0  0  0
   -8.4646   -2.4804   -3.1190 C   0  0  0  0  0  0  0  0  0  0  0  0
   -9.9387   -1.2299   -1.6988 C   0  0  0  0  0  0  0  0  0  0  0  0
  -11.1147   -1.2570   -2.1372 O   0  0  0  0  0  0  0  0  0  0  0  0
   -9.7796   -1.3626   -0.3332 O   0  0  0  0  0  0  0  0  0  0  0  0
   -2.5449   -1.6973    0.3651 H   0  0  0  0  0  0  0  0  0  0  0  0
   -3.5675   -1.2254   -1.0377 H   0  0  0  0  0  0  0  0  0  0  0  0
   -4.3062   -1.5255    0.5456 H   0  0  0  0  0  0  0  0  0  0  0  0
   -3.7236    0.5313    1.4182 H   0  0  0  0  0  0  0  0  0  0  0  0
   -1.7554    1.6328    1.1325 H   0  0  0  0  0  0  0  0  0  0  0  0
   -1.5371    0.9992   -0.5747 H   0  0  0  0  0  0  0  0  0  0  0  0
   -1.2757   -0.1273    0.8509 H   0  0  0  0  0  0  0  0  0  0  0  0
   -3.3130    1.5662   -1.3323 H   0  0  0  0  0  0  0  0  0  0  0  0
   -4.3151    2.1964   -0.0105 H   0  0  0  0  0  0  0  0  0  0  0  0
   -6.3727    2.5091   -0.9922 H   0  0  0  0  0  0  0  0  0  0  0  0
   -8.3958    1.5605   -1.8751 H   0  0  0  0  0  0  0  0  0  0  0  0
   -6.5315   -2.2636   -2.2083 H   0  0  0  0  0  0  0  0  0  0  0  0
   -4.5003   -1.3420   -1.3294 H   0  0  0  0  0  0  0  0  0  0  0  0
   -9.2019   -0.4849   -3.5337 H   0  0  0  0  0  0  0  0  0  0  0  0
   -9.3625   -3.1181   -3.0898 H   0  0  0  0  0  0  0  0  0  0  0  0
   -7.6661   -2.9024   -2.4635 H   0  0  0  0  0  0  0  0  0  0  0  0
   -8.0441   -2.4533   -4.1431 H   0  0  0  0  0  0  0  0  0  0  0  0
  -10.4816   -1.9356    0.1467 H   0  0  0  0  0  0  0  0  0  0  0  0
  1  2  1  0
  2  3  1  0
  2  4  1  0
  4  5  1  0
  5  6  2  0
  6  7  1  0
  7  8  2  0
  8  9  1  0
  9 10  2  0
  8 11  1  0
 11 12  1  0
 11 13  1  0
 13 14  2  0
 13 15  1  0
 10  5  1  0
  1 16  1  0
  1 17  1  0
  1 18  1  0
  2 19  1  0
  3 20  1  0
  3 21  1  0
  3 22  1  0
  4 23  1  0
  4 24  1  0
  6 25  1  0
  7 26  1  0
  9 27  1  0
 10 28  1  0
 11 29  1  6
 12 30  1  0
 12 31  1  0
 12 32  1  0
 15 33  1  0
M  END
$$$$

     RDKit          3D

 33 33  0  0  0  0  0  0  0  0999 V2000
   -3.3997   -1.0951    0.0711 C   0  0  0  0  0  0  0  0  0  0  0  0
   -3.3005    0.3626    0.4063 C   0  0  0  0  0  0  0  0  0  0  0  0
   -3.2389    0.5186    1.9114 C   0  0  0  0  0  0  0  0  0  0  0  0
   -2.1328    1.0537   -0.2402 C   0  0  0  0  0  0  0  0  0  0  0  0
   -1.0350    0.1602   -0.5980 C   0  0  0  0  0  0  0  0  0  0  0  0
    0.1793    0.2687    0.0394 C   0  0  0  0  0  0  0  0  0  0  0  0
    1.2273   -0.5682   -0.2869 C   0  0  0  0  0  0  0  0  0  0  0  0
    1.1098   -1.5422   -1.2560 C   0  0  0  0  0  0  0  0  0  0  0  0
   -0.1163   -1.6314   -1.8804 C   0  0  0  0  0  0  0  0  0  0  0  0
   -1.1688   -0.8021   -1.5632 C   0  0  0  0  0  0  0  0  0  0  0  0
    2.1761   -2.4556   -1.6464 C   0  0  1  0  0  0  0  0  0  0  0  0
    3.5042   -1.6797   -1.6055 C   0  0  0  0  0  0  0  0  0  0  0  0
    2.3573   -3.6086   -0.7583 C   0  0  0  0  0  0  0  0  0  0  0  0
    1.4488   -3.8719    0.0670 O   0  0  0  0  0  0  0  0  0  0  0  0
    3.4609   -4.4392   -0.7562 O   0  0  0  0  0  0  0  0  0  0  0  0
   -2.5449   -1.6973    0.3651 H   0  0  0  0  0  0  0  0  0  0  0  0
   -3.5675   -1.2254   -1.0377 H   0  0  0  0  0  0  0  0  0  0  0  0
   -4.3062   -1.5255    0.5456 H   0  0  0  0  0  0  0  0  0  0  0  0
   -4.2229    0.8765    0.0648 H   0  0  0  0  0  0  0  0  0  0  0  0
   -2.5361   -0.2403    2.2984 H   0  0  0  0  0  0  0  0  0  0  0  0
   -4.2723    0.3508    2.2857 H   0  0  0  0  0  0  0  0  0  0  0  0
   -2.9013    1.5606    2.1218 H   0  0  0  0  0  0  0  0  0  0  0  0
   -1.8319    1.8835    0.4420 H   0  0  0  0  0  0  0  0  0  0  0  0
   -2.4934    1.5563   -1.1716 H   0  0  0  0  0  0  0  0  0  0  0  0
    0.3308    1.0282    0.8215 H   0  0  0  0  0  0  0  0  0  0  0  0
    2.1513   -0.4314    0.2491 H   0  0  0  0  0  0  0  0  0  0  0  0
   -0.2619   -2.4000   -2.6684 H   0  0  0  0  0  0  0  0  0  0  0  0
   -2.0945   -0.9562   -2.1163 H   0  0  0  0  0  0  0  0  0  0  0  0
    1.9986   -2.8087   -2.6809 H   0  0  0  0  0  0  0  0  0  0  0  0
    4.1901   -2.1037   -2.3560 H   0  0  0  0  0  0  0  0  0  0  0  0
    3.9577   -1.7369   -0.5875 H   0  0  0  0  0  0  0  0  0  0  0  0
    3.3281   -0.6052   -1.8074 H   0  0  0  0  0  0  0  0  0  0  0  0
    3.3332   -5.3560   -1.1971 H   0  0  0  0  0  0  0  0  0  0  0  0
  1  2  1  0
  2  3  1  0
  2  4  1  0
  4  5  1  0
  5  6  2  0
  6  7  1  0
  7  8  2  0
  8  9  1  0
  9 10  2  0
  8 11  1  0
 11 12  1  0
 11 13  1  0
 13 14  2  0
 13 15  1  0
 10  5  1  0
  1 16  1  0
  1 17  1  0
  1 18  1  0
  2 19  1  0
  3 20  1  0
  3 21  1  0
  3 22  1  0
  4 23  1  0
  4 24  1  0
  6 25  1  0
  7 26  1  0
  9 27  1  0
 10 28  1  0
 11 29  1  6
 12 30  1  0
 12 31  1  0
 12 32  1  0
 15 33  1  0
M  END
$$$$

     RDKit          3D

 33 33  0  0  0  0  0  0  0  0999 V2000
   -3.3997   -1.0951    0.0711 C   0  0  0  0  0  0  0  0  0  0  0  0
   -3.3005    0.3626    0.4063 C   0  0  0  0  0  0  0  0  0  0  0  0
   -3.3335    0.5250    1.9116 C   0  0  0  0  0  0  0  0  0  0  0  0
   -2.0834    1.0333   -0.1664 C   0  0  0  0  0  0  0  0  0  0  0  0
   -0.8192    0.5024    0.3346 C   0  0  0  0  0  0  0  0  0  0  0  0
    0.3576    1.1696    0.0843 C   0  0  0  0  0  0  0  0  0  0  0  0
    1.5614    0.6812    0.5508 C   0  0  0  0  0  0  0  0  0  0  0  0
    1.6424   -0.4854    1.2816 C   0  0  0  0  0  0  0  0  0  0  0  0
    0.4501   -1.1358    1.5194 C   0  0  0  0  0  0  0  0  0  0  0  0
   -0.7566   -0.6581    1.0592 C   0  0  0  0  0  0  0  0  0  0  0  0
    2.8797   -1.0532    1.8017 C   0  0  1  0  0  0  0  0  0  0  0  0
    4.0400   -0.1416    1.3658 C   0  0  0  0  0  0  0  0  0  0  0  0
    2.9569   -1.1299    3.2642 C   0  0  0  0  0  0  0  0  0  0  0  0
    2.1118   -1.8350    3.8680 O   0  0  0  0  0  0  0  0  0  0  0  0
    3.8962   -0.4808    4.0414 O   0  0  0  0  0  0  0  0  0  0  0  0
   -2.5449   -1.6973    0.3651 H   0  0  0  0  0  0  0  0  0  0  0  0
   -3.5675   -1.2254   -1.0377 H   0  0  0  0  0  0  0  0  0  0  0  0
   -4.3062   -1.5255    0.5456 H   0  0  0  0  0  0  0  0  0  0  0  0
   -4.1913    0.8883    0.0041 H   0  0  0  0  0  0  0  0  0  0  0  0
   -3.7076    1.5407    2.1309 H   0  0  0  0  0  0  0  0  0  0  0  0
   -2.2881    0.3870    2.2641 H   0  0  0  0  0  0  0  0  0  0  0  0
   -4.0006   -0.2725    2.3152 H   0  0  0  0  0  0  0  0  0  0  0  0
   -2.2093    2.1286    0.0041 H   0  0  0  0  0  0  0  0  0  0  0  0
   -2.1017    0.9058   -1.2771 H   0  0  0  0  0  0  0  0  0  0  0  0
    0.3536    2.1061   -0.4941 H   0  0  0  0  0  0  0  0  0  0  0  0
    2.4457    1.2509    0.3205 H   0  0  0  0  0  0  0  0  0  0  0  0
    0.4618   -2.0800    2.1036 H   0  0  0  0  0  0  0  0  0  0  0  0
   -1.6392   -1.2484    1.3023 H   0  0  0  0  0  0  0  0  0  0  0  0
    3.0331   -2.0609    1.3689 H   0  0  0  0  0  0  0  0  0  0  0  0
    4.6196    0.1509    2.2558 H   0  0  0  0  0  0  0  0  0  0  0  0
    3.6492    0.7628    0.8415 H   0  0  0  0  0  0  0  0  0  0  0  0
    4.6891   -0.6665    0.6382 H   0  0  0  0  0  0  0  0  0  0  0  0
    3.5547   -0.0918    4.9265 H   0  0  0  0  0  0  0  0  0  0  0  0
  1  2  1  0
  2  3  1  0
  2  4  1  0
  4  5  1  0
  5  6  2  0
  6  7  1  0
  7  8  2  0
  8  9  1  0
  9 10  2  0
  8 11  1  0
 11 12  1  0
 11 13  1  0
 13 14  2  0
 13 15  1  0
 10  5  1  0
  1 16  1  0
  1 17  1  0
  1 18  1  0
  2 19  1  0
  3 20  1  0
  3 21  1  0
  3 22  1  0
  4 23  1  0
  4 24  1  0
  6 25  1  0
  7 26  1  0
  9 27  1  0
 10 28  1  0
 11 29  1  6
 12 30  1  0
 12 31  1  0
 12 32  1  0
 15 33  1  0
M  END
$$$$

     RDKit          3D

 33 33  0  0  0  0  0  0  0  0999 V2000
   -3.3997   -1.0951    0.0711 C   0  0  0  0  0  0  0  0  0  0  0  0
   -3.3005    0.3626    0.4063 C   0  0  0  0  0  0  0  0  0  0  0  0
   -1.9289    0.8669    0.0088 C   0  0  0  0  0  0  0  0  0  0  0  0
   -4.3721    1.2035   -0.2290 C   0  0  0  0  0  0  0  0  0  0  0  0
   -4.6108    2.4752    0.4471 C   0  0  0  0  0  0  0  0  0  0  0  0
   -5.8704    3.0281    0.4533 C   0  0  0  0  0  0  0  0  0  0  0  0
   -6.1130    4.2297    1.0880 C   0  0  0  0  0  0  0  0  0  0  0  0
   -5.1166    4.9262    1.7388 C   0  0  0  0  0  0  0  0  0  0  0  0
   -3.8632    4.3520    1.7188 C   0  0  0  0  0  0  0  0  0  0  0  0
   -3.6093    3.1540    1.0890 C   0  0  0  0  0  0  0  0  0  0  0  0
   -5.3071    6.1969    2.4264 C   0  0  1  0  0  0  0  0  0  0  0  0
   -4.8523    7.3214    1.4797 C   0  0  0  0  0  0  0  0  0  0  0  0
   -6.6968    6.5060    2.7785 C   0  0  0  0  0  0  0  0  0  0  0  0
   -7.2545    5.8115    3.6631 O   0  0  0  0  0  0  0  0  0  0  0  0
   -7.4517    7.5124    2.2084 O   0  0  0  0  0  0  0  0  0  0  0  0
   -2.5449   -1.6973    0.3651 H   0  0  0  0  0  0  0  0  0  0  0  0
   -3.5675   -1.2254   -1.0377 H   0  0  0  0  0  0  0  0  0  0  0  0
   -4.3062   -1.5255    0.5456 H   0  0  0  0  0  0  0  0  0  0  0  0
   -3.3857    0.4882    1.5056 H   0  0  0  0  0  0  0  0  0  0  0  0
   -1.2538    0.7154    0.8696 H   0  0  0  0  0  0  0  0  0  0  0  0
   -2.0502    1.9451   -0.2338 H   0  0  0  0  0  0  0  0  0  0  0  0
   -1.6118    0.2877   -0.8901 H   0  0  0  0  0  0  0  0  0  0  0  0
   -5.2803    0.5606   -0.3095 H   0  0  0  0  0  0  0  0  0  0  0  0
   -4.0709    1.4185   -1.2841 H   0  0  0  0  0  0  0  0  0  0  0  0
   -6.7047    2.5164   -0.0503 H   0  0  0  0  0  0  0  0  0  0  0  0
   -7.1207    4.6082    1.0560 H   0  0  0  0  0  0  0  0  0  0  0  0
   -3.0263    4.8739    2.2289 H   0  0  0  0  0  0  0  0  0  0  0  0
   -2.5843    2.7881    1.1326 H   0  0  0  0  0  0  0  0  0  0  0  0
   -4.6795    6.2201    3.3385 H   0  0  0  0  0  0  0  0  0  0  0  0
   -5.7400    7.7797    1.0154 H   0  0  0  0  0  0  0  0  0  0  0  0
   -4.1678    6.9179    0.6960 H   0  0  0  0  0  0  0  0  0  0  0  0
   -4.2723    8.0823    2.0371 H   0  0  0  0  0  0  0  0  0  0  0  0
   -7.0085    8.4360    2.1649 H   0  0  0  0  0  0  0  0  0  0  0  0
  1  2  1  0
  2  3  1  0
  2  4  1  0
  4  5  1  0
  5  6  2  0
  6  7  1  0
  7  8  2  0
  8  9  1  0
  9 10  2  0
  8 11  1  0
 11 12  1  0
 11 13  1  0
 13 14  2  0
 13 15  1  0
 10  5  1  0
  1 16  1  0
  1 17  1  0
  1 18  1  0
  2 19  1  0
  3 20  1  0
  3 21  1  0
  3 22  1  0
  4 23  1  0
  4 24  1  0
  6 25  1  0
  7 26  1  0
  9 27  1  0
 10 28  1  0
 11 29  1  1
 12 30  1  0
 12 31  1  0
 12 32  1  0
 15 33  1  0
M  END
$$$$

     RDKit          3D

 33 33  0  0  0  0  0  0  0  0999 V2000
   -3.3997   -1.0951    0.0711 C   0  0  0  0  0  0  0  0  0  0  0  0
   -3.3005    0.3626    0.4063 C   0  0  0  0  0  0  0  0  0  0  0  0
   -1.8455    0.7805    0.3598 C   0  0  0  0  0  0  0  0  0  0  0  0
   -4.1278    1.2458   -0.4851 C   0  0  0  0  0  0  0  0  0  0  0  0
   -4.1393    2.6504   -0.0876 C   0  0  0  0  0  0  0  0  0  0  0  0
   -4.1361    2.9908    1.2453 C   0  0  0  0  0  0  0  0  0  0  0  0
   -4.1468    4.3141    1.6381 C   0  0  0  0  0  0  0  0  0  0  0  0
   -4.1609    5.3470    0.7246 C   0  0  0  0  0  0  0  0  0  0  0  0
   -4.1638    4.9808   -0.6047 C   0  0  0  0  0  0  0  0  0  0  0  0
   -4.1533    3.6643   -1.0083 C   0  0  0  0  0  0  0  0  0  0  0  0
   -4.1727    6.7619    1.0736 C   0  0  1  0  0  0  0  0  0  0  0  0
   -5.5605    7.3257    0.7222 C   0  0  0  0  0  0  0  0  0  0  0  0
   -3.9720    7.0480    2.4979 C   0  0  0  0  0  0  0  0  0  0  0  0
   -2.8799    6.7188    3.0223 O   0  0  0  0  0  0  0  0  0  0  0  0
   -4.8991    7.6582    3.3201 O   0  0  0  0  0  0  0  0  0  0  0  0
   -2.5449   -1.6973    0.3651 H   0  0  0  0  0  0  0  0  0  0  0  0
   -3.5675   -1.2254   -1.0377 H   0  0  0  0  0  0  0  0  0  0  0  0
   -4.3062   -1.5255    0.5456 H   0  0  0  0  0  0  0  0  0  0  0  0
   -3.6494    0.5194    1.4480 H   0  0  0  0  0  0  0  0  0  0  0  0
   -1.7353    1.6809    0.9897 H   0  0  0  0  0  0  0  0  0  0  0  0
   -1.6154    0.9942   -0.7067 H   0  0  0  0  0  0  0  0  0  0  0  0
   -1.2428   -0.0798    0.7347 H   0  0  0  0  0  0  0  0  0  0  0  0
   -5.1431    0.7866   -0.5403 H   0  0  0  0  0  0  0  0  0  0  0  0
   -3.7191    1.1786   -1.5237 H   0  0  0  0  0  0  0  0  0  0  0  0
   -4.1250    2.2081    2.0191 H   0  0  0  0  0  0  0  0  0  0  0  0
   -4.1436    4.5131    2.6964 H   0  0  0  0  0  0  0  0  0  0  0  0
   -4.1750    5.7758   -1.3798 H   0  0  0  0  0  0  0  0  0  0  0  0
   -4.1567    3.4837   -2.0825 H   0  0  0  0  0  0  0  0  0  0  0  0
   -3.4072    7.2950    0.4768 H   0  0  0  0  0  0  0  0  0  0  0  0
   -6.0436    7.6886    1.6434 H   0  0  0  0  0  0  0  0  0  0  0  0
   -6.1883    6.5410    0.2367 H   0  0  0  0  0  0  0  0  0  0  0  0
   -5.4665    8.1479   -0.0136 H   0  0  0  0  0  0  0  0  0  0  0  0
   -4.6202    8.5611    3.7181 H   0  0  0  0  0  0  0  0  0  0  0  0
  1  2  1  0
  2  3  1  0
  2  4  1  0
  4  5  1  0
  5  6  2  0
  6  7  1  0
  7  8  2  0
  8  9  1  0
  9 10  2  0
  8 11  1  0
 11 12  1  0
 11 13  1  0
 13 14  2  0
 13 15  1  0
 10  5  1  0
  1 16  1  0
  1 17  1  0
  1 18  1  0
  2 19  1  0
  3 20  1  0
  3 21  1  0
  3 22  1  0
  4 23  1  0
  4 24  1  0
  6 25  1  0
  7 26  1  0
  9 27  1  0
 10 28  1  0
 11 29  1  6
 12 30  1  0
 12 31  1  0
 12 32  1  0
 15 33  1  0
M  END
$$$$

     RDKit          3D

 33 33  0  0  0  0  0  0  0  0999 V2000
   -3.3997   -1.0951    0.0711 C   0  0  0  0  0  0  0  0  0  0  0  0
   -3.3005    0.3626    0.4063 C   0  0  0  0  0  0  0  0  0  0  0  0
   -2.2814    1.0097   -0.5083 C   0  0  0  0  0  0  0  0  0  0  0  0
   -4.6123    1.0919    0.3279 C   0  0  0  0  0  0  0  0  0  0  0  0
   -5.0432    1.6808    1.5923 C   0  0  0  0  0  0  0  0  0  0  0  0
   -4.5264    1.2190    2.7807 C   0  0  0  0  0  0  0  0  0  0  0  0
   -4.9232    1.7650    3.9848 C   0  0  0  0  0  0  0  0  0  0  0  0
   -5.8457    2.7875    4.0546 C   0  0  0  0  0  0  0  0  0  0  0  0
   -6.3491    3.2330    2.8507 C   0  0  0  0  0  0  0  0  0  0  0  0
   -5.9609    2.6962    1.6436 C   0  0  0  0  0  0  0  0  0  0  0  0
   -6.3055    3.4058    5.2915 C   0  0  1  0  0  0  0  0  0  0  0  0
   -7.4065    4.4196    4.9345 C   0  0  0  0  0  0  0  0  0  0  0  0
   -6.9089    2.4811    6.2568 C   0  0  0  0  0  0  0  0  0  0  0  0
   -6.2144    1.5234    6.6766 O   0  0  0  0  0  0  0  0  0  0  0  0
   -8.1961    2.5798    6.7479 O   0  0  0  0  0  0  0  0  0  0  0  0
   -2.5449   -1.6973    0.3651 H   0  0  0  0  0  0  0  0  0  0  0  0
   -3.5675   -1.2254   -1.0377 H   0  0  0  0  0  0  0  0  0  0  0  0
   -4.3062   -1.5255    0.5456 H   0  0  0  0  0  0  0  0  0  0  0  0
   -2.9200    0.4709    1.4431 H   0  0  0  0  0  0  0  0  0  0  0  0
   -2.7431    1.9175   -0.9353 H   0  0  0  0  0  0  0  0  0  0  0  0
   -2.0458    0.2596   -1.2944 H   0  0  0  0  0  0  0  0  0  0  0  0
   -1.3814    1.2382    0.1095 H   0  0  0  0  0  0  0  0  0  0  0  0
   -5.3508    0.3796   -0.1103 H   0  0  0  0  0  0  0  0  0  0  0  0
   -4.5140    1.9122   -0.4255 H   0  0  0  0  0  0  0  0  0  0  0  0
   -3.7864    0.4044    2.7859 H   0  0  0  0  0  0  0  0  0  0  0  0
   -4.4809    1.3586    4.8786 H   0  0  0  0  0  0  0  0  0  0  0  0
   -7.0954    4.0553    2.8531 H   0  0  0  0  0  0  0  0  0  0  0  0
   -6.4194    3.1206    0.7513 H   0  0  0  0  0  0  0  0  0  0  0  0
   -5.4639    3.9438    5.7696 H   0  0  0  0  0  0  0  0  0  0  0  0
   -7.6685    4.3042    3.8707 H   0  0  0  0  0  0  0  0  0  0  0  0
   -7.0592    5.4602    5.1391 H   0  0  0  0  0  0  0  0  0  0  0  0
   -8.2984    4.2588    5.5709 H   0  0  0  0  0  0  0  0  0  0  0  0
   -8.5123    3.5243    6.9912 H   0  0  0  0  0  0  0  0  0  0  0  0
  1  2  1  0
  2  3  1  0
  2  4  1  0
  4  5  1  0
  5  6  2  0
  6  7  1  0
  7  8  2  0
  8  9  1  0
  9 10  2  0
  8 11  1  0
 11 12  1  0
 11 13  1  0
 13 14  2  0
 13 15  1  0
 10  5  1  0
  1 16  1  0
  1 17  1  0
  1 18  1  0
  2 19  1  0
  3 20  1  0
  3 21  1  0
  3 22  1  0
  4 23  1  0
  4 24  1  0
  6 25  1  0
  7 26  1  0
  9 27  1  0
 10 28  1  0
 11 29  1  1
 12 30  1  0
 12 31  1  0
 12 32  1  0
 15 33  1  0
M  END
$$$$

     RDKit          3D

 33 33  0  0  0  0  0  0  0  0999 V2000
   -3.3997   -1.0951    0.0711 C   0  0  0  0  0  0  0  0  0  0  0  0
   -3.3005    0.3626    0.4063 C   0  0  0  0  0  0  0  0  0  0  0  0
   -4.6923    0.9592    0.4253 C   0  0  0  0  0  0  0  0  0  0  0  0
   -2.5947    0.6381    1.7043 C   0  0  0  0  0  0  0  0  0  0  0  0
   -2.8888    1.9487    2.2761 C   0  0  0  0  0  0  0  0  0  0  0  0
   -4.0552    2.1501    2.9773 C   0  0  0  0  0  0  0  0  0  0  0  0
   -4.3484    3.3831    3.5243 C   0  0  0  0  0  0  0  0  0  0  0  0
   -3.4968    4.4602    3.3962 C   0  0  0  0  0  0  0  0  0  0  0  0
   -2.3348    4.2336    2.6895 C   0  0  0  0  0  0  0  0  0  0  0  0
   -2.0317    3.0081    2.1394 C   0  0  0  0  0  0  0  0  0  0  0  0
   -3.7476    5.7851    3.9488 C   0  0  1  0  0  0  0  0  0  0  0  0
   -5.0468    5.7183    4.7704 C   0  0  0  0  0  0  0  0  0  0  0  0
   -2.7159    6.2759    4.8682 C   0  0  0  0  0  0  0  0  0  0  0  0
   -2.9444    6.2224    6.1014 O   0  0  0  0  0  0  0  0  0  0  0  0
   -1.4972    6.7992    4.4824 O   0  0  0  0  0  0  0  0  0  0  0  0
   -2.5449   -1.6973    0.3651 H   0  0  0  0  0  0  0  0  0  0  0  0
   -3.5675   -1.2254   -1.0377 H   0  0  0  0  0  0  0  0  0  0  0  0
   -4.3062   -1.5255    0.5456 H   0  0  0  0  0  0  0  0  0  0  0  0
   -2.7367    0.8814   -0.3966 H   0  0  0  0  0  0  0  0  0  0  0  0
   -5.0175    1.0844   -0.6227 H   0  0  0  0  0  0  0  0  0  0  0  0
   -4.6066    1.9364    0.9487 H   0  0  0  0  0  0  0  0  0  0  0  0
   -5.3451    0.2563    0.9942 H   0  0  0  0  0  0  0  0  0  0  0  0
   -1.5081    0.4607    1.5239 H   0  0  0  0  0  0  0  0  0  0  0  0
   -2.9003   -0.1435    2.4433 H   0  0  0  0  0  0  0  0  0  0  0  0
   -4.7726    1.3263    3.1114 H   0  0  0  0  0  0  0  0  0  0  0  0
   -5.2774    3.4747    4.0611 H   0  0  0  0  0  0  0  0  0  0  0  0
   -1.6156    5.0694    2.5581 H   0  0  0  0  0  0  0  0  0  0  0  0
   -1.0878    2.9358    1.6005 H   0  0  0  0  0  0  0  0  0  0  0  0
   -3.8828    6.5096    3.1222 H   0  0  0  0  0  0  0  0  0  0  0  0
   -5.8620    6.1788    4.1899 H   0  0  0  0  0  0  0  0  0  0  0  0
   -4.9183    6.2448    5.7460 H   0  0  0  0  0  0  0  0  0  0  0  0
   -5.2936    4.6668    5.0148 H   0  0  0  0  0  0  0  0  0  0  0  0
   -0.6702    6.3803    4.9205 H   0  0  0  0  0  0  0  0  0  0  0  0
  1  2  1  0
  2  3  1  0
  2  4  1  0
  4  5  1  0
  5  6  2  0
  6  7  1  0
  7  8  2  0
  8  9  1  0
  9 10  2  0
  8 11  1  0
 11 12  1  0
 11 13  1  0
 13 14  2  0
 13 15  1  0
 10  5  1  0
  1 16  1  0
  1 17  1  0
  1 18  1  0
  2 19  1  0
  3 20  1  0
  3 21  1  0
  3 22  1  0
  4 23  1  0
  4 24  1  0
  6 25  1  0
  7 26  1  0
  9 27  1  0
 10 28  1  0
 11 29  1  6
 12 30  1  0
 12 31  1  0
 12 32  1  0
 15 33  1  0
M  END
$$$$

     RDKit          3D

 33 33  0  0  0  0  0  0  0  0999 V2000
   -3.3997   -1.0951    0.0711 C   0  0  0  0  0  0  0  0  0  0  0  0
   -3.3005    0.3626    0.4063 C   0  0  0  0  0  0  0  0  0  0  0  0
   -4.6965    0.9260    0.5710 C   0  0  0  0  0  0  0  0  0  0  0  0
   -2.4731    0.6473    1.6283 C   0  0  0  0  0  0  0  0  0  0  0  0
   -1.4560   -0.3621    1.9077 C   0  0  0  0  0  0  0  0  0  0  0  0
   -0.2031   -0.2525    1.3503 C   0  0  0  0  0  0  0  0  0  0  0  0
    0.7699   -1.1981    1.6044 C   0  0  0  0  0  0  0  0  0  0  0  0
    0.5363   -2.2857    2.4194 C   0  0  0  0  0  0  0  0  0  0  0  0
   -0.7264   -2.3735    2.9661 C   0  0  0  0  0  0  0  0  0  0  0  0
   -1.7049   -1.4364    2.7198 C   0  0  0  0  0  0  0  0  0  0  0  0
    1.5190   -3.3170    2.7268 C   0  0  1  0  0  0  0  0  0  0  0  0
    1.3413   -3.7170    4.2019 C   0  0  0  0  0  0  0  0  0  0  0  0
    1.3759   -4.5558    1.9549 C   0  0  0  0  0  0  0  0  0  0  0  0
    0.2347   -4.8649    1.5331 O   0  0  0  0  0  0  0  0  0  0  0  0
    2.4083   -5.4213    1.6504 O   0  0  0  0  0  0  0  0  0  0  0  0
   -2.5449   -1.6973    0.3651 H   0  0  0  0  0  0  0  0  0  0  0  0
   -3.5675   -1.2254   -1.0377 H   0  0  0  0  0  0  0  0  0  0  0  0
   -4.3062   -1.5255    0.5456 H   0  0  0  0  0  0  0  0  0  0  0  0
   -2.8331    0.8991   -0.4454 H   0  0  0  0  0  0  0  0  0  0  0  0
   -4.7101    1.9284    0.1078 H   0  0  0  0  0  0  0  0  0  0  0  0
   -4.8864    0.9762    1.6654 H   0  0  0  0  0  0  0  0  0  0  0  0
   -5.3996    0.2164    0.0750 H   0  0  0  0  0  0  0  0  0  0  0  0
   -3.1872    0.8098    2.4698 H   0  0  0  0  0  0  0  0  0  0  0  0
   -1.9608    1.6308    1.4847 H   0  0  0  0  0  0  0  0  0  0  0  0
    0.0402    0.5950    0.6915 H   0  0  0  0  0  0  0  0  0  0  0  0
    1.7295   -1.0542    1.1375 H   0  0  0  0  0  0  0  0  0  0  0  0
   -0.9647   -3.2312    3.6298 H   0  0  0  0  0  0  0  0  0  0  0  0
   -2.6683   -1.5997    3.2011 H   0  0  0  0  0  0  0  0  0  0  0  0
    2.5385   -2.9082    2.5863 H   0  0  0  0  0  0  0  0  0  0  0  0
    0.5578   -3.0869    4.6521 H   0  0  0  0  0  0  0  0  0  0  0  0
    2.3026   -3.5981    4.7563 H   0  0  0  0  0  0  0  0  0  0  0  0
    1.0679   -4.7872    4.2799 H   0  0  0  0  0  0  0  0  0  0  0  0
    2.9530   -5.7677    2.4470 H   0  0  0  0  0  0  0  0  0  0  0  0
  1  2  1  0
  2  3  1  0
  2  4  1  0
  4  5  1  0
  5  6  2  0
  6  7  1  0
  7  8  2  0
  8  9  1  0
  9 10  2  0
  8 11  1  0
 11 12  1  0
 11 13  1  0
 13 14  2  0
 13 15  1  0
 10  5  1  0
  1 16  1  0
  1 17  1  0
  1 18  1  0
  2 19  1  0
  3 20  1  0
  3 21  1  0
  3 22  1  0
  4 23  1  0
  4 24  1  0
  6 25  1  0
  7 26  1  0
  9 27  1  0
 10 28  1  0
 11 29  1  1
 12 30  1  0
 12 31  1  0
 12 32  1  0
 15 33  1  0
M  END
$$$$

     RDKit          3D

 33 33  0  0  0  0  0  0  0  0999 V2000
   -3.3997   -1.0951    0.0711 C   0  0  0  0  0  0  0  0  0  0  0  0
   -3.3005    0.3626    0.4063 C   0  0  0  0  0  0  0  0  0  0  0  0
   -3.1964    1.1572   -0.8788 C   0  0  0  0  0  0  0  0  0  0  0  0
   -4.4403    0.8694    1.2447 C   0  0  0  0  0  0  0  0  0  0  0  0
   -5.3545    1.7577    0.5331 C   0  0  0  0  0  0  0  0  0  0  0  0
   -5.8550    1.3933   -0.6954 C   0  0  0  0  0  0  0  0  0  0  0  0
   -6.7204    2.2216   -1.3813 C   0  0  0  0  0  0  0  0  0  0  0  0
   -7.1206    3.4402   -0.8747 C   0  0  0  0  0  0  0  0  0  0  0  0
   -6.6057    3.7831    0.3575 C   0  0  0  0  0  0  0  0  0  0  0  0
   -5.7419    2.9650    1.0509 C   0  0  0  0  0  0  0  0  0  0  0  0
   -8.0298    4.3590   -1.5476 C   0  0  1  0  0  0  0  0  0  0  0  0
   -7.1893    5.4882   -2.1689 C   0  0  0  0  0  0  0  0  0  0  0  0
   -8.7939    3.7723   -2.6533 C   0  0  0  0  0  0  0  0  0  0  0  0
  -10.0470    3.8303   -2.6067 O   0  0  0  0  0  0  0  0  0  0  0  0
   -8.2395    3.1529   -3.7564 O   0  0  0  0  0  0  0  0  0  0  0  0
   -2.5449   -1.6973    0.3651 H   0  0  0  0  0  0  0  0  0  0  0  0
   -3.5675   -1.2254   -1.0377 H   0  0  0  0  0  0  0  0  0  0  0  0
   -4.3062   -1.5255    0.5456 H   0  0  0  0  0  0  0  0  0  0  0  0
   -2.3637    0.5409    0.9740 H   0  0  0  0  0  0  0  0  0  0  0  0
   -2.5705    2.0439   -0.6747 H   0  0  0  0  0  0  0  0  0  0  0  0
   -4.2349    1.4420   -1.1554 H   0  0  0  0  0  0  0  0  0  0  0  0
   -2.7476    0.4849   -1.6473 H   0  0  0  0  0  0  0  0  0  0  0  0
   -3.9902    1.3262    2.1575 H   0  0  0  0  0  0  0  0  0  0  0  0
   -5.0230   -0.0104    1.6143 H   0  0  0  0  0  0  0  0  0  0  0  0
   -5.5701    0.4317   -1.1489 H   0  0  0  0  0  0  0  0  0  0  0  0
   -7.0759    1.8778   -2.3378 H   0  0  0  0  0  0  0  0  0  0  0  0
   -6.8975    4.7547    0.8089 H   0  0  0  0  0  0  0  0  0  0  0  0
   -5.3936    3.3305    2.0161 H   0  0  0  0  0  0  0  0  0  0  0  0
   -8.7267    4.7966   -0.8065 H   0  0  0  0  0  0  0  0  0  0  0  0
   -6.3418    5.7126   -1.5018 H   0  0  0  0  0  0  0  0  0  0  0  0
   -7.8147    6.3995   -2.3235 H   0  0  0  0  0  0  0  0  0  0  0  0
   -6.8233    5.1888   -3.1702 H   0  0  0  0  0  0  0  0  0  0  0  0
   -8.0216    2.1567   -3.6493 H   0  0  0  0  0  0  0  0  0  0  0  0
  1  2  1  0
  2  3  1  0
  2  4  1  0
  4  5  1  0
  5  6  2  0
  6  7  1  0
  7  8  2  0
  8  9  1  0
  9 10  2  0
  8 11  1  0
 11 12  1  0
 11 13  1  0
 13 14  2  0
 13 15  1  0
 10  5  1  0
  1 16  1  0
  1 17  1  0
  1 18  1  0
  2 19  1  0
  3 20  1  0
  3 21  1  0
  3 22  1  0
  4 23  1  0
  4 24  1  0
  6 25  1  0
  7 26  1  0
  9 27  1  0
 10 28  1  0
 11 29  1  1
 12 30  1  0
 12 31  1  0
 12 32  1  0
 15 33  1  0
M  END
$$$$

     RDKit          3D

 33 33  0  0  0  0  0  0  0  0999 V2000
   -3.3997   -1.0951    0.0711 C   0  0  0  0  0  0  0  0  0  0  0  0
   -3.3005    0.3626    0.4063 C   0  0  0  0  0  0  0  0  0  0  0  0
   -2.7052    1.0999   -0.7751 C   0  0  0  0  0  0  0  0  0  0  0  0
   -4.6107    0.9822    0.8043 C   0  0  0  0  0  0  0  0  0  0  0  0
   -4.7302    2.3960    0.4605 C   0  0  0  0  0  0  0  0  0  0  0  0
   -5.9351    3.0431    0.6084 C   0  0  0  0  0  0  0  0  0  0  0  0
   -6.0650    4.3794    0.2879 C   0  0  0  0  0  0  0  0  0  0  0  0
   -5.0062    5.1221   -0.1905 C   0  0  0  0  0  0  0  0  0  0  0  0
   -3.8095    4.4516   -0.3301 C   0  0  0  0  0  0  0  0  0  0  0  0
   -3.6680    3.1190   -0.0136 C   0  0  0  0  0  0  0  0  0  0  0  0
   -5.0778    6.5335   -0.5464 C   0  0  1  0  0  0  0  0  0  0  0  0
   -6.2116    7.1727    0.2740 C   0  0  0  0  0  0  0  0  0  0  0  0
   -3.8723    7.3097   -0.2382 C   0  0  0  0  0  0  0  0  0  0  0  0
   -4.0010    8.5327    0.0139 O   0  0  0  0  0  0  0  0  0  0  0  0
   -2.5899    6.7978   -0.2023 O   0  0  0  0  0  0  0  0  0  0  0  0
   -2.5449   -1.6973    0.3651 H   0  0  0  0  0  0  0  0  0  0  0  0
   -3.5675   -1.2254   -1.0377 H   0  0  0  0  0  0  0  0  0  0  0  0
   -4.3062   -1.5255    0.5456 H   0  0  0  0  0  0  0  0  0  0  0  0
   -2.5984    0.4920    1.2560 H   0  0  0  0  0  0  0  0  0  0  0  0
   -1.6750    0.7283   -0.9174 H   0  0  0  0  0  0  0  0  0  0  0  0
   -2.7199    2.1795   -0.5097 H   0  0  0  0  0  0  0  0  0  0  0  0
   -3.3588    0.8953   -1.6554 H   0  0  0  0  0  0  0  0  0  0  0  0
   -4.7495    0.7713    1.8910 H   0  0  0  0  0  0  0  0  0  0  0  0
   -5.4332    0.4256    0.2905 H   0  0  0  0  0  0  0  0  0  0  0  0
   -6.8150    2.5004    0.9862 H   0  0  0  0  0  0  0  0  0  0  0  0
   -7.0349    4.8264    0.4266 H   0  0  0  0  0  0  0  0  0  0  0  0
   -2.9261    5.0056   -0.7117 H   0  0  0  0  0  0  0  0  0  0  0  0
   -2.6797    2.6853   -0.1608 H   0  0  0  0  0  0  0  0  0  0  0  0
   -5.3158    6.6302   -1.6236 H   0  0  0  0  0  0  0  0  0  0  0  0
   -6.5936    6.4325    0.9949 H   0  0  0  0  0  0  0  0  0  0  0  0
   -7.0316    7.5196   -0.3988 H   0  0  0  0  0  0  0  0  0  0  0  0
   -5.8428    8.0724    0.8039 H   0  0  0  0  0  0  0  0  0  0  0  0
   -2.1955    6.5121   -1.1046 H   0  0  0  0  0  0  0  0  0  0  0  0
  1  2  1  0
  2  3  1  0
  2  4  1  0
  4  5  1  0
  5  6  2  0
  6  7  1  0
  7  8  2  0
  8  9  1  0
  9 10  2  0
  8 11  1  0
 11 12  1  0
 11 13  1  0
 13 14  2  0
 13 15  1  0
 10  5  1  0
  1 16  1  0
  1 17  1  0
  1 18  1  0
  2 19  1  0
  3 20  1  0
  3 21  1  0
  3 22  1  0
  4 23  1  0
  4 24  1  0
  6 25  1  0
  7 26  1  0
  9 27  1  0
 10 28  1  0
 11 29  1  6
 12 30  1  0
 12 31  1  0
 12 32  1  0
 15 33  1  0
M  END
$$$$

     RDKit          3D

 33 33  0  0  0  0  0  0  0  0999 V2000
   -3.3997   -1.0951    0.0711 C   0  0  0  0  0  0  0  0  0  0  0  0
   -3.3005    0.3626    0.4063 C   0  0  0  0  0  0  0  0  0  0  0  0
   -3.9095    1.1695   -0.7214 C   0  0  0  0  0  0  0  0  0  0  0  0
   -3.9408    0.7270    1.7163 C   0  0  0  0  0  0  0  0  0  0  0  0
   -3.7426   -0.2619    2.7718 C   0  0  0  0  0  0  0  0  0  0  0  0
   -3.9522    0.0811    4.0875 C   0  0  0  0  0  0  0  0  0  0  0  0
   -3.7693   -0.8418    5.0975 C   0  0  0  0  0  0  0  0  0  0  0  0
   -3.3724   -2.1371    4.8402 C   0  0  0  0  0  0  0  0  0  0  0  0
   -3.1686   -2.4568    3.5145 C   0  0  0  0  0  0  0  0  0  0  0  0
   -3.3479   -1.5446    2.4987 C   0  0  0  0  0  0  0  0  0  0  0  0
   -3.1621   -3.1573    5.8594 C   0  0  1  0  0  0  0  0  0  0  0  0
   -4.5269   -3.7863    6.1898 C   0  0  0  0  0  0  0  0  0  0  0  0
   -2.2962   -4.2684    5.4512 C   0  0  0  0  0  0  0  0  0  0  0  0
   -2.7174   -5.4401    5.6112 O   0  0  0  0  0  0  0  0  0  0  0  0
   -1.0385   -4.1285    4.8978 O   0  0  0  0  0  0  0  0  0  0  0  0
   -2.5449   -1.6973    0.3651 H   0  0  0  0  0  0  0  0  0  0  0  0
   -3.5675   -1.2254   -1.0377 H   0  0  0  0  0  0  0  0  0  0  0  0
   -4.3062   -1.5255    0.5456 H   0  0  0  0  0  0  0  0  0  0  0  0
   -2.2298    0.6482    0.4674 H   0  0  0  0  0  0  0  0  0  0  0  0
   -4.1170    0.4761   -1.5554 H   0  0  0  0  0  0  0  0  0  0  0  0
   -3.1536    1.9352   -1.0018 H   0  0  0  0  0  0  0  0  0  0  0  0
   -4.8348    1.6478   -0.3228 H   0  0  0  0  0  0  0  0  0  0  0  0
   -5.0135    0.9445    1.5008 H   0  0  0  0  0  0  0  0  0  0  0  0
   -3.5082    1.6989    2.0607 H   0  0  0  0  0  0  0  0  0  0  0  0
   -4.2700    1.1011    4.3523 H   0  0  0  0  0  0  0  0  0  0  0  0
   -3.9500   -0.5098    6.1058 H   0  0  0  0  0  0  0  0  0  0  0  0
   -2.8481   -3.4877    3.2548 H   0  0  0  0  0  0  0  0  0  0  0  0
   -3.1602   -1.8996    1.4861 H   0  0  0  0  0  0  0  0  0  0  0  0
   -2.7536   -2.6856    6.7742 H   0  0  0  0  0  0  0  0  0  0  0  0
   -4.9896   -3.2244    7.0167 H   0  0  0  0  0  0  0  0  0  0  0  0
   -4.4038   -4.8596    6.4695 H   0  0  0  0  0  0  0  0  0  0  0  0
   -5.1834   -3.7708    5.2982 H   0  0  0  0  0  0  0  0  0  0  0  0
   -0.9868   -4.2035    3.8765 H   0  0  0  0  0  0  0  0  0  0  0  0
  1  2  1  0
  2  3  1  0
  2  4  1  0
  4  5  1  0
  5  6  2  0
  6  7  1  0
  7  8  2  0
  8  9  1  0
  9 10  2  0
  8 11  1  0
 11 12  1  0
 11 13  1  0
 13 14  2  0
 13 15  1  0
 10  5  1  0
  1 16  1  0
  1 17  1  0
  1 18  1  0
  2 19  1  0
  3 20  1  0
  3 21  1  0
  3 22  1  0
  4 23  1  0
  4 24  1  0
  6 25  1  0
  7 26  1  0
  9 27  1  0
 10 28  1  0
 11 29  1  1
 12 30  1  0
 12 31  1  0
 12 32  1  0
 15 33  1  0
M  END
$$$$

     RDKit          3D

 33 33  0  0  0  0  0  0  0  0999 V2000
   -3.3997   -1.0951    0.0711 C   0  0  0  0  0  0  0  0  0  0  0  0
   -3.3005    0.3626    0.4063 C   0  0  0  0  0  0  0  0  0  0  0  0
   -4.1520    1.1506   -0.5672 C   0  0  0  0  0  0  0  0  0  0  0  0
   -3.6884    0.6855    1.8220 C   0  0  0  0  0  0  0  0  0  0  0  0
   -2.6840    1.4499    2.5555 C   0  0  0  0  0  0  0  0  0  0  0  0
   -2.8436    1.6868    3.9012 C   0  0  0  0  0  0  0  0  0  0  0  0
   -1.9033    2.4077    4.6095 C   0  0  0  0  0  0  0  0  0  0  0  0
   -0.7718    2.9194    4.0100 C   0  0  0  0  0  0  0  0  0  0  0  0
   -0.6342    2.6688    2.6612 C   0  0  0  0  0  0  0  0  0  0  0  0
   -1.5655    1.9511    1.9444 C   0  0  0  0  0  0  0  0  0  0  0  0
    0.2567    3.6872    4.7004 C   0  0  1  0  0  0  0  0  0  0  0  0
    0.0514    3.5016    6.2140 C   0  0  0  0  0  0  0  0  0  0  0  0
    1.6331    3.2613    4.4268 C   0  0  0  0  0  0  0  0  0  0  0  0
    1.8186    2.1065    3.9711 O   0  0  0  0  0  0  0  0  0  0  0  0
    2.7566    4.0380    4.6324 O   0  0  0  0  0  0  0  0  0  0  0  0
   -2.5449   -1.6973    0.3651 H   0  0  0  0  0  0  0  0  0  0  0  0
   -3.5675   -1.2254   -1.0377 H   0  0  0  0  0  0  0  0  0  0  0  0
   -4.3062   -1.5255    0.5456 H   0  0  0  0  0  0  0  0  0  0  0  0
   -2.2519    0.6967    0.2633 H   0  0  0  0  0  0  0  0  0  0  0  0
   -4.9909    0.5033   -0.8785 H   0  0  0  0  0  0  0  0  0  0  0  0
   -3.4913    1.4077   -1.4236 H   0  0  0  0  0  0  0  0  0  0  0  0
   -4.4954    2.0696   -0.0366 H   0  0  0  0  0  0  0  0  0  0  0  0
   -3.9615   -0.2803    2.3091 H   0  0  0  0  0  0  0  0  0  0  0  0
   -4.6349    1.2805    1.8001 H   0  0  0  0  0  0  0  0  0  0  0  0
   -3.7276    1.3025    4.4325 H   0  0  0  0  0  0  0  0  0  0  0  0
   -2.0875    2.5579    5.6598 H   0  0  0  0  0  0  0  0  0  0  0  0
    0.2602    3.0597    2.1318 H   0  0  0  0  0  0  0  0  0  0  0  0
   -1.3612    1.8101    0.8838 H   0  0  0  0  0  0  0  0  0  0  0  0
    0.1442    4.7605    4.4521 H   0  0  0  0  0  0  0  0  0  0  0  0
    0.3134    2.4670    6.4869 H   0  0  0  0  0  0  0  0  0  0  0  0
   -1.0064    3.7218    6.4936 H   0  0  0  0  0  0  0  0  0  0  0  0
    0.6779    4.2197    6.7779 H   0  0  0  0  0  0  0  0  0  0  0  0
    2.9031    4.3701    5.5914 H   0  0  0  0  0  0  0  0  0  0  0  0
  1  2  1  0
  2  3  1  0
  2  4  1  0
  4  5  1  0
  5  6  2  0
  6  7  1  0
  7  8  2  0
  8  9  1  0
  9 10  2  0
  8 11  1  0
 11 12  1  0
 11 13  1  0
 13 14  2  0
 13 15  1  0
 10  5  1  0
  1 16  1  0
  1 17  1  0
  1 18  1  0
  2 19  1  0
  3 20  1  0
  3 21  1  0
  3 22  1  0
  4 23  1  0
  4 24  1  0
  6 25  1  0
  7 26  1  0
  9 27  1  0
 10 28  1  0
 11 29  1  1
 12 30  1  0
 12 31  1  0
 12 32  1  0
 15 33  1  0
M  END
$$$$

     RDKit          3D

 33 33  0  0  0  0  0  0  0  0999 V2000
   -3.3997   -1.0951    0.0711 C   0  0  0  0  0  0  0  0  0  0  0  0
   -3.3005    0.3626    0.4063 C   0  0  0  0  0  0  0  0  0  0  0  0
   -4.4038    1.1095   -0.3138 C   0  0  0  0  0  0  0  0  0  0  0  0
   -3.3500    0.6489    1.8809 C   0  0  0  0  0  0  0  0  0  0  0  0
   -4.6132    0.2860    2.5163 C   0  0  0  0  0  0  0  0  0  0  0  0
   -4.6181   -0.2771    3.7715 C   0  0  0  0  0  0  0  0  0  0  0  0
   -5.8037   -0.6259    4.3863 C   0  0  0  0  0  0  0  0  0  0  0  0
   -7.0264   -0.4294    3.7797 C   0  0  0  0  0  0  0  0  0  0  0  0
   -6.9957    0.1361    2.5226 C   0  0  0  0  0  0  0  0  0  0  0  0
   -5.8192    0.4881    1.8995 C   0  0  0  0  0  0  0  0  0  0  0  0
   -8.3114   -0.7752    4.3740 C   0  0  1  0  0  0  0  0  0  0  0  0
   -8.3486   -2.3010    4.5690 C   0  0  0  0  0  0  0  0  0  0  0  0
   -8.5549   -0.1951    5.6987 C   0  0  0  0  0  0  0  0  0  0  0  0
   -7.7484   -0.4632    6.6226 O   0  0  0  0  0  0  0  0  0  0  0  0
   -9.6136    0.6332    6.0167 O   0  0  0  0  0  0  0  0  0  0  0  0
   -2.5449   -1.6973    0.3651 H   0  0  0  0  0  0  0  0  0  0  0  0
   -3.5675   -1.2254   -1.0377 H   0  0  0  0  0  0  0  0  0  0  0  0
   -4.3062   -1.5255    0.5456 H   0  0  0  0  0  0  0  0  0  0  0  0
   -2.3374    0.7580    0.0218 H   0  0  0  0  0  0  0  0  0  0  0  0
   -4.3389    0.8513   -1.3856 H   0  0  0  0  0  0  0  0  0  0  0  0
   -4.2148    2.1912   -0.1393 H   0  0  0  0  0  0  0  0  0  0  0  0
   -5.3702    0.7931    0.1444 H   0  0  0  0  0  0  0  0  0  0  0  0
   -3.0748    1.7223    2.0098 H   0  0  0  0  0  0  0  0  0  0  0  0
   -2.5296    0.0745    2.3782 H   0  0  0  0  0  0  0  0  0  0  0  0
   -3.6717   -0.4573    4.3037 H   0  0  0  0  0  0  0  0  0  0  0  0
   -5.7386   -1.0624    5.3686 H   0  0  0  0  0  0  0  0  0  0  0  0
   -7.9543    0.3150    1.9917 H   0  0  0  0  0  0  0  0  0  0  0  0
   -5.9062    0.9279    0.9067 H   0  0  0  0  0  0  0  0  0  0  0  0
   -9.1270   -0.4816    3.6850 H   0  0  0  0  0  0  0  0  0  0  0  0
   -9.1328   -2.7258    3.9223 H   0  0  0  0  0  0  0  0  0  0  0  0
   -8.5473   -2.5524    5.6380 H   0  0  0  0  0  0  0  0  0  0  0  0
   -7.3641   -2.7443    4.3232 H   0  0  0  0  0  0  0  0  0  0  0  0
   -9.4659    1.6340    5.8499 H   0  0  0  0  0  0  0  0  0  0  0  0
  1  2  1  0
  2  3  1  0
  2  4  1  0
  4  5  1  0
  5  6  2  0
  6  7  1  0
  7  8  2  0
  8  9  1  0
  9 10  2  0
  8 11  1  0
 11 12  1  0
 11 13  1  0
 13 14  2  0
 13 15  1  0
 10  5  1  0
  1 16  1  0
  1 17  1  0
  1 18  1  0
  2 19  1  0
  3 20  1  0
  3 21  1  0
  3 22  1  0
  4 23  1  0
  4 24  1  0
  6 25  1  0
  7 26  1  0
  9 27  1  0
 10 28  1  0
 11 29  1  6
 12 30  1  0
 12 31  1  0
 12 32  1  0
 15 33  1  0
M  END
$$$$

     RDKit          3D

 33 33  0  0  0  0  0  0  0  0999 V2000
   -3.3997   -1.0951    0.0711 C   0  0  0  0  0  0  0  0  0  0  0  0
   -3.3005    0.3626    0.4063 C   0  0  0  0  0  0  0  0  0  0  0  0
   -2.1583    0.9718   -0.3798 C   0  0  0  0  0  0  0  0  0  0  0  0
   -4.5711    1.1272    0.1617 C   0  0  0  0  0  0  0  0  0  0  0  0
   -5.3744    0.6106   -0.9424 C   0  0  0  0  0  0  0  0  0  0  0  0
   -4.8796    0.6333   -2.2259 C   0  0  0  0  0  0  0  0  0  0  0  0
   -5.6262    0.1488   -3.2810 C   0  0  0  0  0  0  0  0  0  0  0  0
   -6.8891   -0.3753   -3.1023 C   0  0  0  0  0  0  0  0  0  0  0  0
   -7.3629   -0.3872   -1.8075 C   0  0  0  0  0  0  0  0  0  0  0  0
   -6.6274    0.0933   -0.7472 C   0  0  0  0  0  0  0  0  0  0  0  0
   -7.7268   -0.9018   -4.1723 C   0  0  1  0  0  0  0  0  0  0  0  0
   -8.5910    0.2522   -4.7097 C   0  0  0  0  0  0  0  0  0  0  0  0
   -6.9936   -1.4268   -5.3288 C   0  0  0  0  0  0  0  0  0  0  0  0
   -7.5394   -2.3181   -6.0242 O   0  0  0  0  0  0  0  0  0  0  0  0
   -5.7347   -1.0146   -5.7203 O   0  0  0  0  0  0  0  0  0  0  0  0
   -2.5449   -1.6973    0.3651 H   0  0  0  0  0  0  0  0  0  0  0  0
   -3.5675   -1.2254   -1.0377 H   0  0  0  0  0  0  0  0  0  0  0  0
   -4.3062   -1.5255    0.5456 H   0  0  0  0  0  0  0  0  0  0  0  0
   -3.0477    0.4708    1.4814 H   0  0  0  0  0  0  0  0  0  0  0  0
   -1.3603    1.2337    0.3373 H   0  0  0  0  0  0  0  0  0  0  0  0
   -2.5707    1.8732   -0.8832 H   0  0  0  0  0  0  0  0  0  0  0  0
   -1.8291    0.2117   -1.1267 H   0  0  0  0  0  0  0  0  0  0  0  0
   -4.2844    2.1991    0.0451 H   0  0  0  0  0  0  0  0  0  0  0  0
   -5.1891    1.0890    1.0928 H   0  0  0  0  0  0  0  0  0  0  0  0
   -3.8772    1.0402   -2.4282 H   0  0  0  0  0  0  0  0  0  0  0  0
   -5.1814    0.1954   -4.2606 H   0  0  0  0  0  0  0  0  0  0  0  0
   -8.3751   -0.7992   -1.6109 H   0  0  0  0  0  0  0  0  0  0  0  0
   -7.0945    0.0374    0.2352 H   0  0  0  0  0  0  0  0  0  0  0  0
   -8.3917   -1.6889   -3.7663 H   0  0  0  0  0  0  0  0  0  0  0  0
   -8.0320    1.1960   -4.6078 H   0  0  0  0  0  0  0  0  0  0  0  0
   -9.5557    0.3091   -4.1516 H   0  0  0  0  0  0  0  0  0  0  0  0
   -8.8554    0.0731   -5.7700 H   0  0  0  0  0  0  0  0  0  0  0  0
   -5.1165   -1.7465   -6.0858 H   0  0  0  0  0  0  0  0  0  0  0  0
  1  2  1  0
  2  3  1  0
  2  4  1  0
  4  5  1  0
  5  6  2  0
  6  7  1  0
  7  8  2  0
  8  9  1  0
  9 10  2  0
  8 11  1  0
 11 12  1  0
 11 13  1  0
 13 14  2  0
 13 15  1  0
 10  5  1  0
  1 16  1  0
  1 17  1  0
  1 18  1  0
  2 19  1  0
  3 20  1  0
  3 21  1  0
  3 22  1  0
  4 23  1  0
  4 24  1  0
  6 25  1  0
  7 26  1  0
  9 27  1  0
 10 28  1  0
 11 29  1  1
 12 30  1  0
 12 31  1  0
 12 32  1  0
 15 33  1  0
M  END
$$$$
