
     RDKit          3D

 33 33  0  0  0  0  0  0  0  0999 V2000
   -3.3997   -1.0951    0.0711 C   0  0  0  0  0  0  0  0  0  0  0  0
   -3.3005    0.3626    0.4063 C   0  0  0  0  0  0  0  0  0  0  0  0
   -2.9508    0.5079    1.8726 C   0  0  0  0  0  0  0  0  0  0  0  0
   -2.3143    1.1129   -0.4443 C   0  0  0  0  0  0  0  0  0  0  0  0
   -2.6661    2.5115   -0.6715 C   0  0  0  0  0  0  0  0  0  0  0  0
   -1.5803    3.3548   -0.7219 C   0  0  0  0  0  0  0  0  0  0  0  0
   -0.2981    2.8681   -0.5654 C   0  0  0  0  0  0  0  0  0  0  0  0
   -0.0459    1.5290   -0.3535 C   0  0  0  0  0  0  0  0  0  0  0  0
   -1.1498    0.7041   -0.3070 C   0  0  0  0  0  0  0  0  0  0  0  0
   -2.4333    1.1782   -0.4618 C   0  0  0  0  0  0  0  0  0  0  0  0
    1.2816    0.9530   -0.1810 C   0  0  1  0  0  0  0  0  0  0  0  0
    1.4788   -0.1182   -1.2677 C   0  0  0  0  0  0  0  0  0  0  0  0
    2.3907    1.8986   -0.3434 C   0  0  0  0  0  0  0  0  0  0  0  0
    2.8865    2.0426   -1.4876 O   0  0  0  0  0  0  0  0  0  0  0  0
    2.9413    2.6536    0.6738 O   0  0  0  0  0  0  0  0  0  0  0  0
   -2.5449   -1.6973    0.3651 H   0  0  0  0  0  0  0  0  0  0  0  0
   -3.5675   -1.2254   -1.0377 H   0  0  0  0  0  0  0  0  0  0  0  0
   -4.3062   -1.5255    0.5456 H   0  0  0  0  0  0  0  0  0  0  0  0
   -4.2937    0.8360    0.2617 H   0  0  0  0  0  0  0  0  0  0  0  0
   -2.1851   -0.2513    2.1113 H   0  0  0  0  0  0  0  0  0  0  0  0
   -3.8924    0.3339    2.4375 H   0  0  0  0  0  0  0  0  0  0  0  0
   -2.5810    1.5495    2.0222 H   0  0  0  0  0  0  0  0  0  0  0  0
   -2.1856    0.5243   -1.3832 H   0  0  0  0  0  0  0  0  0  0  0  0
   -1.3174    1.0798    0.0611 H   0  0  0  0  0  0  0  0  0  0  0  0
   -1.7214    4.4335   -0.8884 H   0  0  0  0  0  0  0  0  0  0  0  0
    0.5079    3.5805   -0.6154 H   0  0  0  0  0  0  0  0  0  0  0  0
   -0.9998   -0.3831   -0.1386 H   0  0  0  0  0  0  0  0  0  0  0  0
   -3.2345    0.4422   -0.4080 H   0  0  0  0  0  0  0  0  0  0  0  0
    1.3477    0.4712    0.8139 H   0  0  0  0  0  0  0  0  0  0  0  0
    1.4998   -1.1116   -0.7920 H   0  0  0  0  0  0  0  0  0  0  0  0
    2.4264    0.0651   -1.8280 H   0  0  0  0  0  0  0  0  0  0  0  0
    0.6616   -0.0648   -2.0131 H   0  0  0  0  0  0  0  0  0  0  0  0
    3.7326    2.2297    1.1694 H   0  0  0  0  0  0  0  0  0  0  0  0
  1  2  1  0
  2  3  1  0
  2  4  1  0
  4  5  1  0
  5  6  2  0
  6  7  1  0
  7  8  2  0
  8  9  1  0
  9 10  2  0
  8 11  1  0
 11 12  1  0
 11 13  1  0
 13 14  2  0
 13 15  1  0
 10  5  1  0
  1 16  1  0
  1 17  1  0
  1 18  1  0
  2 19  1  0
  3 20  1  0
  3 21  1  0
  3 22  1  0
  4 23  1  0
  4 24  1  0
  6 25  1  0
  7 26  1  0
  9 27  1  0
 10 28  1  0
 11 29  1  1
 12 30  1  0
 12 31  1  0
 12 32  1  0
 15 33  1  0
M  END
$$$$
