
     RDKit          3D

 33 33  0  0  0  0  0  0  0  0999 V2000
   -3.3997   -1.0951    0.0711 C   0  0  0  0  0  0  0  0  0  0  0  0
   -3.3005    0.3626    0.4063 C   0  0  0  0  0  0  0  0  0  0  0  0
   -1.9026    0.6583    0.9084 C   0  0  0  0  0  0  0  0  0  0  0  0
   -3.6488    1.2715   -0.7390 C   0  0  0  0  0  0  0  0  0  0  0  0
   -4.1160    2.5929   -0.3302 C   0  0  0  0  0  0  0  0  0  0  0  0
   -3.3241    2.2243   -1.3931 C   0  0  0  0  0  0  0  0  0  0  0  0
   -2.8391    3.1685   -2.2755 C   0  0  0  0  0  0  0  0  0  0  0  0
   -3.1212    4.5112   -2.1364 C   0  0  0  0  0  0  0  0  0  0  0  0
   -3.9164    4.8557   -1.0640 C   0  0  0  0  0  0  0  0  0  0  0  0
   -4.4059    3.9227   -0.1774 C   0  0  0  0  0  0  0  0  0  0  0  0
   -2.6410    5.5559   -3.0318 C   0  0  1  0  0  0  0  0  0  0  0  0
   -1.3542    6.1442   -2.4274 C   0  0  0  0  0  0  0  0  0  0  0  0
   -2.2797    5.0978   -4.3773 C   0  0  0  0  0  0  0  0  0  0  0  0
   -1.9903    5.9610   -5.2415 O   0  0  0  0  0  0  0  0  0  0  0  0
   -2.2311    3.7762   -4.7761 O   0  0  0  0  0  0  0  0  0  0  0  0
   -2.5449   -1.6973    0.3651 H   0  0  0  0  0  0  0  0  0  0  0  0
   -3.5675   -1.2254   -1.0377 H   0  0  0  0  0  0  0  0  0  0  0  0
   -4.3062   -1.5255    0.5456 H   0  0  0  0  0  0  0  0  0  0  0  0
   -3.9985    0.5915    1.2381 H   0  0  0  0  0  0  0  0  0  0  0  0
   -1.7002    1.7284    0.7254 H   0  0  0  0  0  0  0  0  0  0  0  0
   -1.2165    0.0048    0.3266 H   0  0  0  0  0  0  0  0  0  0  0  0
   -1.8793    0.3982    1.9927 H   0  0  0  0  0  0  0  0  0  0  0  0
   -4.3744    0.7175   -1.3804 H   0  0  0  0  0  0  0  0  0  0  0  0
   -2.7375    1.4026   -1.3735 H   0  0  0  0  0  0  0  0  0  0  0  0
   -3.0662    1.1664   -1.5538 H   0  0  0  0  0  0  0  0  0  0  0  0
   -2.2251    2.8146   -3.0862 H   0  0  0  0  0  0  0  0  0  0  0  0
   -4.1725    5.9248   -0.9081 H   0  0  0  0  0  0  0  0  0  0  0  0
   -5.0247    4.3004    0.6355 H   0  0  0  0  0  0  0  0  0  0  0  0
   -3.4020    6.3571   -3.1048 H   0  0  0  0  0  0  0  0  0  0  0  0
   -1.1547    5.6530   -1.4617 H   0  0  0  0  0  0  0  0  0  0  0  0
   -1.4574    7.2468   -2.2891 H   0  0  0  0  0  0  0  0  0  0  0  0
   -0.5019    5.9961   -3.1187 H   0  0  0  0  0  0  0  0  0  0  0  0
   -1.5468    3.5528   -5.5061 H   0  0  0  0  0  0  0  0  0  0  0  0
  1  2  1  0
  2  3  1  0
  2  4  1  0
  4  5  1  0
  5  6  2  0
  6  7  1  0
  7  8  2  0
  8  9  1  0
  9 10  2  0
  8 11  1  0
 11 12  1  0
 11 13  1  0
 13 14  2  0
 13 15  1  0
 10  5  1  0
  1 16  1  0
  1 17  1  0
  1 18  1  0
  2 19  1  0
  3 20  1  0
  3 21  1  0
  3 22  1  0
  4 23  1  0
  4 24  1  0
  6 25  1  0
  7 26  1  0
  9 27  1  0
 10 28  1  0
 11 29  1  6
 12 30  1  0
 12 31  1  0
 12 32  1  0
 15 33  1  0
M  END
$$$$
