
     RDKit          3D

 33 33  0  0  0  0  0  0  0  0999 V2000
   -3.3997   -1.0951    0.0711 C   0  0  0  0  0  0  0  0  0  0  0  0
   -3.3005    0.3626    0.4063 C   0  0  0  0  0  0  0  0  0  0  0  0
   -4.0109    1.1635   -0.6649 C   0  0  0  0  0  0  0  0  0  0  0  0
   -3.8418    0.7090    1.7649 C   0  0  0  0  0  0  0  0  0  0  0  0
   -3.5274    2.0655    2.2035 C   0  0  0  0  0  0  0  0  0  0  0  0
   -4.8783    2.3201    2.2544 C   0  0  0  0  0  0  0  0  0  0  0  0
   -5.7957    1.3433    1.9232 C   0  0  0  0  0  0  0  0  0  0  0  0
   -5.4076    0.0799    1.5298 C   0  0  0  0  0  0  0  0  0  0  0  0
   -4.0489   -0.1509    1.4866 C   0  0  0  0  0  0  0  0  0  0  0  0
   -3.1246    0.8156    1.8148 C   0  0  0  0  0  0  0  0  0  0  0  0
   -6.3243   -0.9935    1.1678 C   0  0  1  0  0  0  0  0  0  0  0  0
   -7.7605   -0.4652    1.3284 C   0  0  0  0  0  0  0  0  0  0  0  0
   -6.2187   -1.4536   -0.2207 C   0  0  0  0  0  0  0  0  0  0  0  0
   -7.0922   -1.0770   -1.0399 O   0  0  0  0  0  0  0  0  0  0  0  0
   -5.2231   -2.2784   -0.7068 O   0  0  0  0  0  0  0  0  0  0  0  0
   -2.5449   -1.6973    0.3651 H   0  0  0  0  0  0  0  0  0  0  0  0
   -3.5675   -1.2254   -1.0377 H   0  0  0  0  0  0  0  0  0  0  0  0
   -4.3062   -1.5255    0.5456 H   0  0  0  0  0  0  0  0  0  0  0  0
   -2.2336    0.6675    0.3845 H   0  0  0  0  0  0  0  0  0  0  0  0
   -3.2516    1.7719   -1.1873 H   0  0  0  0  0  0  0  0  0  0  0  0
   -4.7557    1.7990   -0.1380 H   0  0  0  0  0  0  0  0  0  0  0  0
   -4.5147    0.4347   -1.3424 H   0  0  0  0  0  0  0  0  0  0  0  0
   -3.4852   -0.0831    2.4650 H   0  0  0  0  0  0  0  0  0  0  0  0
   -4.9541    0.5979    1.7389 H   0  0  0  0  0  0  0  0  0  0  0  0
   -5.2463    3.3109    2.5616 H   0  0  0  0  0  0  0  0  0  0  0  0
   -6.8381    1.6067    1.9838 H   0  0  0  0  0  0  0  0  0  0  0  0
   -3.6850   -1.1529    1.1759 H   0  0  0  0  0  0  0  0  0  0  0  0
   -2.0756    0.5298    1.7472 H   0  0  0  0  0  0  0  0  0  0  0  0
   -6.1783   -1.8500    1.8543 H   0  0  0  0  0  0  0  0  0  0  0  0
   -7.7251    0.6225    1.4998 H   0  0  0  0  0  0  0  0  0  0  0  0
   -8.2710   -0.9768    2.1787 H   0  0  0  0  0  0  0  0  0  0  0  0
   -8.3577   -0.6938    0.4243 H   0  0  0  0  0  0  0  0  0  0  0  0
   -4.2743   -1.8896   -0.6980 H   0  0  0  0  0  0  0  0  0  0  0  0
  1  2  1  0
  2  3  1  0
  2  4  1  0
  4  5  1  0
  5  6  2  0
  6  7  1  0
  7  8  2  0
  8  9  1  0
  9 10  2  0
  8 11  1  0
 11 12  1  0
 11 13  1  0
 13 14  2  0
 13 15  1  0
 10  5  1  0
  1 16  1  0
  1 17  1  0
  1 18  1  0
  2 19  1  0
  3 20  1  0
  3 21  1  0
  3 22  1  0
  4 23  1  0
  4 24  1  0
  6 25  1  0
  7 26  1  0
  9 27  1  0
 10 28  1  0
 11 29  1  1
 12 30  1  0
 12 31  1  0
 12 32  1  0
 15 33  1  0
M  END
$$$$
