
     RDKit          3D

 33 33  0  0  0  0  0  0  0  0999 V2000
   -3.3997   -1.0951    0.0711 C   0  0  0  0  0  0  0  0  0  0  0  0
   -3.3005    0.3626    0.4063 C   0  0  0  0  0  0  0  0  0  0  0  0
   -1.8852    0.8331    0.1429 C   0  0  0  0  0  0  0  0  0  0  0  0
   -4.2849    1.2222   -0.3360 C   0  0  0  0  0  0  0  0  0  0  0  0
   -4.2230    1.0814   -1.7878 C   0  0  0  0  0  0  0  0  0  0  0  0
   -4.4292    0.7286   -0.4741 C   0  0  0  0  0  0  0  0  0  0  0  0
   -4.2194    1.6368    0.5440 C   0  0  0  0  0  0  0  0  0  0  0  0
   -3.7981    2.9264    0.2972 C   0  0  0  0  0  0  0  0  0  0  0  0
   -3.5984    3.2560   -1.0267 C   0  0  0  0  0  0  0  0  0  0  0  0
   -3.8044    2.3586   -2.0506 C   0  0  0  0  0  0  0  0  0  0  0  0
   -3.5588    3.9311    1.3253 C   0  0  1  0  0  0  0  0  0  0  0  0
   -4.6572    3.7878    2.3933 C   0  0  0  0  0  0  0  0  0  0  0  0
   -2.2848    3.7933    2.0386 C   0  0  0  0  0  0  0  0  0  0  0  0
   -1.9728    4.6765    2.8742 O   0  0  0  0  0  0  0  0  0  0  0  0
   -1.3887    2.7569    1.8633 O   0  0  0  0  0  0  0  0  0  0  0  0
   -2.5449   -1.6973    0.3651 H   0  0  0  0  0  0  0  0  0  0  0  0
   -3.5675   -1.2254   -1.0377 H   0  0  0  0  0  0  0  0  0  0  0  0
   -4.3062   -1.5255    0.5456 H   0  0  0  0  0  0  0  0  0  0  0  0
   -3.4904    0.4987    1.4912 H   0  0  0  0  0  0  0  0  0  0  0  0
   -1.5360    0.3426   -0.7830 H   0  0  0  0  0  0  0  0  0  0  0  0
   -1.2833    0.5228    1.0247 H   0  0  0  0  0  0  0  0  0  0  0  0
   -1.9182    1.9441    0.0517 H   0  0  0  0  0  0  0  0  0  0  0  0
   -4.1318    2.2682    0.0204 H   0  0  0  0  0  0  0  0  0  0  0  0
   -5.3153    0.9464   -0.0006 H   0  0  0  0  0  0  0  0  0  0  0  0
   -4.7657   -0.2874   -0.2175 H   0  0  0  0  0  0  0  0  0  0  0  0
   -4.3989    1.2977    1.5502 H   0  0  0  0  0  0  0  0  0  0  0  0
   -3.2589    4.2829   -1.2781 H   0  0  0  0  0  0  0  0  0  0  0  0
   -3.6175    2.7205   -3.0609 H   0  0  0  0  0  0  0  0  0  0  0  0
   -3.6249    4.9411    0.8761 H   0  0  0  0  0  0  0  0  0  0  0  0
   -4.4132    4.4390    3.2478 H   0  0  0  0  0  0  0  0  0  0  0  0
   -4.7417    2.7257    2.7252 H   0  0  0  0  0  0  0  0  0  0  0  0
   -5.6433    4.0605    1.9698 H   0  0  0  0  0  0  0  0  0  0  0  0
   -1.0495    2.6142    0.9063 H   0  0  0  0  0  0  0  0  0  0  0  0
  1  2  1  0
  2  3  1  0
  2  4  1  0
  4  5  1  0
  5  6  2  0
  6  7  1  0
  7  8  2  0
  8  9  1  0
  9 10  2  0
  8 11  1  0
 11 12  1  0
 11 13  1  0
 13 14  2  0
 13 15  1  0
 10  5  1  0
  1 16  1  0
  1 17  1  0
  1 18  1  0
  2 19  1  0
  3 20  1  0
  3 21  1  0
  3 22  1  0
  4 23  1  0
  4 24  1  0
  6 25  1  0
  7 26  1  0
  9 27  1  0
 10 28  1  0
 11 29  1  6
 12 30  1  0
 12 31  1  0
 12 32  1  0
 15 33  1  0
M  END
$$$$
