
     RDKit          3D

 33 33  0  0  0  0  0  0  0  0999 V2000
   -3.3997   -1.0951    0.0711 C   0  0  0  0  0  0  0  0  0  0  0  0
   -3.3005    0.3626    0.4063 C   0  0  0  0  0  0  0  0  0  0  0  0
   -2.0285    0.9210   -0.1971 C   0  0  0  0  0  0  0  0  0  0  0  0
   -4.4889    1.1678   -0.0391 C   0  0  0  0  0  0  0  0  0  0  0  0
   -5.7346    0.4089   -0.0979 C   0  0  0  0  0  0  0  0  0  0  0  0
   -6.9274   -0.0884   -0.5697 C   0  0  0  0  0  0  0  0  0  0  0  0
   -7.4111    0.2870   -1.8068 C   0  0  0  0  0  0  0  0  0  0  0  0
   -6.7308    1.1683   -2.6204 C   0  0  0  0  0  0  0  0  0  0  0  0
   -5.5384    1.6529   -2.1259 C   0  0  0  0  0  0  0  0  0  0  0  0
   -5.0459    1.2856   -0.8935 C   0  0  0  0  0  0  0  0  0  0  0  0
   -7.1866    1.6039   -3.9342 C   0  0  1  0  0  0  0  0  0  0  0  0
   -7.8290    2.9932   -3.7770 C   0  0  0  0  0  0  0  0  0  0  0  0
   -6.1258    1.7631   -4.9343 C   0  0  0  0  0  0  0  0  0  0  0  0
   -5.1658    2.5262   -4.6663 O   0  0  0  0  0  0  0  0  0  0  0  0
   -6.0967    1.1331   -6.1632 O   0  0  0  0  0  0  0  0  0  0  0  0
   -2.5449   -1.6973    0.3651 H   0  0  0  0  0  0  0  0  0  0  0  0
   -3.5675   -1.2254   -1.0377 H   0  0  0  0  0  0  0  0  0  0  0  0
   -4.3062   -1.5255    0.5456 H   0  0  0  0  0  0  0  0  0  0  0  0
   -3.2139    0.4763    1.5068 H   0  0  0  0  0  0  0  0  0  0  0  0
   -1.3132    1.0906    0.6270 H   0  0  0  0  0  0  0  0  0  0  0  0
   -2.3114    1.8722   -0.6983 H   0  0  0  0  0  0  0  0  0  0  0  0
   -1.6583    0.1733   -0.9373 H   0  0  0  0  0  0  0  0  0  0  0  0
   -4.2088    1.6467   -1.0070 H   0  0  0  0  0  0  0  0  0  0  0  0
   -4.6279    2.0149    0.6774 H   0  0  0  0  0  0  0  0  0  0  0  0
   -7.5136   -0.7956    0.0367 H   0  0  0  0  0  0  0  0  0  0  0  0
   -8.3504   -0.1383   -2.1174 H   0  0  0  0  0  0  0  0  0  0  0  0
   -4.9523    2.3659   -2.7431 H   0  0  0  0  0  0  0  0  0  0  0  0
   -4.0948    1.7264   -0.5975 H   0  0  0  0  0  0  0  0  0  0  0  0
   -7.9499    0.8965   -4.3127 H   0  0  0  0  0  0  0  0  0  0  0  0
   -7.8035    3.2815   -2.7140 H   0  0  0  0  0  0  0  0  0  0  0  0
   -8.8802    2.9810   -4.1517 H   0  0  0  0  0  0  0  0  0  0  0  0
   -7.2885    3.7387   -4.3919 H   0  0  0  0  0  0  0  0  0  0  0  0
   -5.2139    1.1992   -6.6804 H   0  0  0  0  0  0  0  0  0  0  0  0
  1  2  1  0
  2  3  1  0
  2  4  1  0
  4  5  1  0
  5  6  2  0
  6  7  1  0
  7  8  2  0
  8  9  1  0
  9 10  2  0
  8 11  1  0
 11 12  1  0
 11 13  1  0
 13 14  2  0
 13 15  1  0
 10  5  1  0
  1 16  1  0
  1 17  1  0
  1 18  1  0
  2 19  1  0
  3 20  1  0
  3 21  1  0
  3 22  1  0
  4 23  1  0
  4 24  1  0
  6 25  1  0
  7 26  1  0
  9 27  1  0
 10 28  1  0
 11 29  1  6
 12 30  1  0
 12 31  1  0
 12 32  1  0
 15 33  1  0
M  END
$$$$
