
     RDKit          3D

 33 33  0  0  0  0  0  0  0  0999 V2000
   -3.3997   -1.0951    0.0711 C   0  0  0  0  0  0  0  0  0  0  0  0
   -3.3005    0.3626    0.4063 C   0  0  0  0  0  0  0  0  0  0  0  0
   -4.5286    0.7718    1.1922 C   0  0  0  0  0  0  0  0  0  0  0  0
   -2.0515    0.7264    1.1591 C   0  0  0  0  0  0  0  0  0  0  0  0
   -1.4738   -0.3754    1.9228 C   0  0  0  0  0  0  0  0  0  0  0  0
   -1.6661   -1.7376    1.9330 C   0  0  0  0  0  0  0  0  0  0  0  0
   -0.9514   -2.5470    2.7930 C   0  0  0  0  0  0  0  0  0  0  0  0
   -0.0211   -2.0360    3.6733 C   0  0  0  0  0  0  0  0  0  0  0  0
    0.1538   -0.6686    3.6443 C   0  0  0  0  0  0  0  0  0  0  0  0
   -0.5533    0.1487    2.7910 C   0  0  0  0  0  0  0  0  0  0  0  0
    0.7646   -2.8350    4.6049 C   0  0  1  0  0  0  0  0  0  0  0  0
    1.2935   -1.8979    5.7047 C   0  0  0  0  0  0  0  0  0  0  0  0
    0.0157   -3.8871    5.2998 C   0  0  0  0  0  0  0  0  0  0  0  0
   -0.3160   -3.6907    6.4945 O   0  0  0  0  0  0  0  0  0  0  0  0
   -0.3594   -5.0925    4.7392 O   0  0  0  0  0  0  0  0  0  0  0  0
   -2.5449   -1.6973    0.3651 H   0  0  0  0  0  0  0  0  0  0  0  0
   -3.5675   -1.2254   -1.0377 H   0  0  0  0  0  0  0  0  0  0  0  0
   -4.3062   -1.5255    0.5456 H   0  0  0  0  0  0  0  0  0  0  0  0
   -3.3066    0.9518   -0.5342 H   0  0  0  0  0  0  0  0  0  0  0  0
   -5.4119    0.5787    0.5580 H   0  0  0  0  0  0  0  0  0  0  0  0
   -4.4111    1.8547    1.4148 H   0  0  0  0  0  0  0  0  0  0  0  0
   -4.5362    0.1689    2.1305 H   0  0  0  0  0  0  0  0  0  0  0  0
   -2.2981    1.6211    1.7784 H   0  0  0  0  0  0  0  0  0  0  0  0
   -1.2881    1.0811    0.4230 H   0  0  0  0  0  0  0  0  0  0  0  0
   -2.3960   -2.2012    1.2520 H   0  0  0  0  0  0  0  0  0  0  0  0
   -1.1491   -3.6047    2.7512 H   0  0  0  0  0  0  0  0  0  0  0  0
    0.8918   -0.2078    4.3342 H   0  0  0  0  0  0  0  0  0  0  0  0
   -0.3391    1.2152    2.8484 H   0  0  0  0  0  0  0  0  0  0  0  0
    1.6251   -3.2832    4.0712 H   0  0  0  0  0  0  0  0  0  0  0  0
    0.7542   -0.9389    5.6482 H   0  0  0  0  0  0  0  0  0  0  0  0
    2.3908   -1.7351    5.5833 H   0  0  0  0  0  0  0  0  0  0  0  0
    1.1562   -2.3594    6.7019 H   0  0  0  0  0  0  0  0  0  0  0  0
   -0.7051   -5.0505    3.7748 H   0  0  0  0  0  0  0  0  0  0  0  0
  1  2  1  0
  2  3  1  0
  2  4  1  0
  4  5  1  0
  5  6  2  0
  6  7  1  0
  7  8  2  0
  8  9  1  0
  9 10  2  0
  8 11  1  0
 11 12  1  0
 11 13  1  0
 13 14  2  0
 13 15  1  0
 10  5  1  0
  1 16  1  0
  1 17  1  0
  1 18  1  0
  2 19  1  0
  3 20  1  0
  3 21  1  0
  3 22  1  0
  4 23  1  0
  4 24  1  0
  6 25  1  0
  7 26  1  0
  9 27  1  0
 10 28  1  0
 11 29  1  6
 12 30  1  0
 12 31  1  0
 12 32  1  0
 15 33  1  0
M  END
$$$$
