
     RDKit          3D

 33 33  0  0  0  0  0  0  0  0999 V2000
   -3.3997   -1.0951    0.0711 C   0  0  0  0  0  0  0  0  0  0  0  0
   -3.3005    0.3626    0.4063 C   0  0  0  0  0  0  0  0  0  0  0  0
   -2.2372    0.5524    1.4679 C   0  0  0  0  0  0  0  0  0  0  0  0
   -3.0166    1.2383   -0.7818 C   0  0  0  0  0  0  0  0  0  0  0  0
   -4.1782    1.9761   -1.2694 C   0  0  0  0  0  0  0  0  0  0  0  0
   -3.1781    1.1262   -1.6819 C   0  0  0  0  0  0  0  0  0  0  0  0
   -3.0910    0.7219   -2.9988 C   0  0  0  0  0  0  0  0  0  0  0  0
   -3.9914    1.1449   -3.9538 C   0  0  0  0  0  0  0  0  0  0  0  0
   -4.9842    1.9958   -3.5163 C   0  0  0  0  0  0  0  0  0  0  0  0
   -5.0810    2.4059   -2.2053 C   0  0  0  0  0  0  0  0  0  0  0  0
   -3.9545    0.7554   -5.3576 C   0  0  1  0  0  0  0  0  0  0  0  0
   -2.5509    1.0737   -5.9015 C   0  0  0  0  0  0  0  0  0  0  0  0
   -4.1674   -0.6740   -5.6075 C   0  0  0  0  0  0  0  0  0  0  0  0
   -3.3240   -1.4881   -5.1583 O   0  0  0  0  0  0  0  0  0  0  0  0
   -5.2345   -1.2041   -6.3061 O   0  0  0  0  0  0  0  0  0  0  0  0
   -2.5449   -1.6973    0.3651 H   0  0  0  0  0  0  0  0  0  0  0  0
   -3.5675   -1.2254   -1.0377 H   0  0  0  0  0  0  0  0  0  0  0  0
   -4.3062   -1.5255    0.5456 H   0  0  0  0  0  0  0  0  0  0  0  0
   -4.2618    0.6993    0.8468 H   0  0  0  0  0  0  0  0  0  0  0  0
   -2.7239    0.4415    2.4530 H   0  0  0  0  0  0  0  0  0  0  0  0
   -1.8303    1.5770    1.3234 H   0  0  0  0  0  0  0  0  0  0  0  0
   -1.4516   -0.2190    1.2900 H   0  0  0  0  0  0  0  0  0  0  0  0
   -2.5409    0.5888   -1.5541 H   0  0  0  0  0  0  0  0  0  0  0  0
   -2.2279    1.9767   -0.4938 H   0  0  0  0  0  0  0  0  0  0  0  0
   -2.4311    0.7563   -0.9631 H   0  0  0  0  0  0  0  0  0  0  0  0
   -2.2849    0.0561   -3.2566 H   0  0  0  0  0  0  0  0  0  0  0  0
   -5.7343    2.3649   -4.2470 H   0  0  0  0  0  0  0  0  0  0  0  0
   -5.9029    3.0790   -1.9646 H   0  0  0  0  0  0  0  0  0  0  0  0
   -4.7010    1.3460   -5.9236 H   0  0  0  0  0  0  0  0  0  0  0  0
   -2.3200    0.3797   -6.7254 H   0  0  0  0  0  0  0  0  0  0  0  0
   -1.7891    0.9827   -5.0910 H   0  0  0  0  0  0  0  0  0  0  0  0
   -2.5042    2.1218   -6.2556 H   0  0  0  0  0  0  0  0  0  0  0  0
   -5.4896   -2.1690   -6.0712 H   0  0  0  0  0  0  0  0  0  0  0  0
  1  2  1  0
  2  3  1  0
  2  4  1  0
  4  5  1  0
  5  6  2  0
  6  7  1  0
  7  8  2  0
  8  9  1  0
  9 10  2  0
  8 11  1  0
 11 12  1  0
 11 13  1  0
 13 14  2  0
 13 15  1  0
 10  5  1  0
  1 16  1  0
  1 17  1  0
  1 18  1  0
  2 19  1  0
  3 20  1  0
  3 21  1  0
  3 22  1  0
  4 23  1  0
  4 24  1  0
  6 25  1  0
  7 26  1  0
  9 27  1  0
 10 28  1  0
 11 29  1  6
 12 30  1  0
 12 31  1  0
 12 32  1  0
 15 33  1  0
M  END
$$$$
