
     RDKit          3D

 33 33  0  0  0  0  0  0  0  0999 V2000
   -3.3997   -1.0951    0.0711 C   0  0  0  0  0  0  0  0  0  0  0  0
   -3.3005    0.3626    0.4063 C   0  0  0  0  0  0  0  0  0  0  0  0
   -3.7211    1.1749   -0.8007 C   0  0  0  0  0  0  0  0  0  0  0  0
   -4.1036    0.7620    1.6123 C   0  0  0  0  0  0  0  0  0  0  0  0
   -3.5556    0.2839    2.8781 C   0  0  0  0  0  0  0  0  0  0  0  0
   -2.5488   -0.0996    3.7336 C   0  0  0  0  0  0  0  0  0  0  0  0
   -2.8313   -0.5063    5.0221 C   0  0  0  0  0  0  0  0  0  0  0  0
   -4.1208   -0.5475    5.5089 C   0  0  0  0  0  0  0  0  0  0  0  0
   -5.1122   -0.1586    4.6331 C   0  0  0  0  0  0  0  0  0  0  0  0
   -4.8424    0.2489    3.3457 C   0  0  0  0  0  0  0  0  0  0  0  0
   -4.4848   -0.9663    6.8564 C   0  0  1  0  0  0  0  0  0  0  0  0
   -4.6756    0.2988    7.7111 C   0  0  0  0  0  0  0  0  0  0  0  0
   -5.7454   -1.7095    6.9525 C   0  0  0  0  0  0  0  0  0  0  0  0
   -6.2612   -1.8612    8.0869 O   0  0  0  0  0  0  0  0  0  0  0  0
   -6.4202   -2.2635    5.8821 O   0  0  0  0  0  0  0  0  0  0  0  0
   -2.5449   -1.6973    0.3651 H   0  0  0  0  0  0  0  0  0  0  0  0
   -3.5675   -1.2254   -1.0377 H   0  0  0  0  0  0  0  0  0  0  0  0
   -4.3062   -1.5255    0.5456 H   0  0  0  0  0  0  0  0  0  0  0  0
   -2.2398    0.6154    0.6131 H   0  0  0  0  0  0  0  0  0  0  0  0
   -2.8201    1.6736   -1.1996 H   0  0  0  0  0  0  0  0  0  0  0  0
   -4.4710    1.9107   -0.4366 H   0  0  0  0  0  0  0  0  0  0  0  0
   -4.1772    0.4674   -1.5323 H   0  0  0  0  0  0  0  0  0  0  0  0
   -5.1526    0.4320    1.4241 H   0  0  0  0  0  0  0  0  0  0  0  0
   -4.1501    1.8785    1.6497 H   0  0  0  0  0  0  0  0  0  0  0  0
   -1.5002   -0.0868    3.3994 H   0  0  0  0  0  0  0  0  0  0  0  0
   -1.9982   -0.7937    5.6409 H   0  0  0  0  0  0  0  0  0  0  0  0
   -6.1677   -0.1740    4.9772 H   0  0  0  0  0  0  0  0  0  0  0  0
   -5.6982    0.5355    2.7358 H   0  0  0  0  0  0  0  0  0  0  0  0
   -3.6640   -1.5709    7.2888 H   0  0  0  0  0  0  0  0  0  0  0  0
   -5.7343    0.3761    8.0055 H   0  0  0  0  0  0  0  0  0  0  0  0
   -4.3632    1.2054    7.1402 H   0  0  0  0  0  0  0  0  0  0  0  0
   -4.0278    0.2580    8.6084 H   0  0  0  0  0  0  0  0  0  0  0  0
   -7.4433   -2.2065    5.9187 H   0  0  0  0  0  0  0  0  0  0  0  0
  1  2  1  0
  2  3  1  0
  2  4  1  0
  4  5  1  0
  5  6  2  0
  6  7  1  0
  7  8  2  0
  8  9  1  0
  9 10  2  0
  8 11  1  0
 11 12  1  0
 11 13  1  0
 13 14  2  0
 13 15  1  0
 10  5  1  0
  1 16  1  0
  1 17  1  0
  1 18  1  0
  2 19  1  0
  3 20  1  0
  3 21  1  0
  3 22  1  0
  4 23  1  0
  4 24  1  0
  6 25  1  0
  7 26  1  0
  9 27  1  0
 10 28  1  0
 11 29  1  1
 12 30  1  0
 12 31  1  0
 12 32  1  0
 15 33  1  0
M  END
$$$$
