
     RDKit          3D

 33 33  0  0  0  0  0  0  0  0999 V2000
   -3.3997   -1.0951    0.0711 C   0  0  0  0  0  0  0  0  0  0  0  0
   -3.3005    0.3626    0.4063 C   0  0  0  0  0  0  0  0  0  0  0  0
   -4.5014    1.0831   -0.1700 C   0  0  0  0  0  0  0  0  0  0  0  0
   -3.1815    0.6379    1.8790 C   0  0  0  0  0  0  0  0  0  0  0  0
   -4.2686    0.0814    2.6790 C   0  0  0  0  0  0  0  0  0  0  0  0
   -3.7316    0.7394    1.5967 C   0  0  0  0  0  0  0  0  0  0  0  0
   -4.5413    1.2199    0.5873 C   0  0  0  0  0  0  0  0  0  0  0  0
   -5.9113    1.0658    0.6140 C   0  0  0  0  0  0  0  0  0  0  0  0
   -6.4256    0.4033    1.7085 C   0  0  0  0  0  0  0  0  0  0  0  0
   -5.6279   -0.0803    2.7213 C   0  0  0  0  0  0  0  0  0  0  0  0
   -6.8199    1.5489   -0.4180 C   0  0  1  0  0  0  0  0  0  0  0  0
   -6.1538    1.3128   -1.7848 C   0  0  0  0  0  0  0  0  0  0  0  0
   -8.1118    0.8573   -0.4761 C   0  0  0  0  0  0  0  0  0  0  0  0
   -8.1693   -0.3299   -0.0722 O   0  0  0  0  0  0  0  0  0  0  0  0
   -9.2858    1.4134   -0.9453 O   0  0  0  0  0  0  0  0  0  0  0  0
   -2.5449   -1.6973    0.3651 H   0  0  0  0  0  0  0  0  0  0  0  0
   -3.5675   -1.2254   -1.0377 H   0  0  0  0  0  0  0  0  0  0  0  0
   -4.3062   -1.5255    0.5456 H   0  0  0  0  0  0  0  0  0  0  0  0
   -2.4011    0.7871   -0.0862 H   0  0  0  0  0  0  0  0  0  0  0  0
   -5.0506    1.5439    0.6700 H   0  0  0  0  0  0  0  0  0  0  0  0
   -5.1121    0.3102   -0.6857 H   0  0  0  0  0  0  0  0  0  0  0  0
   -4.1168    1.8385   -0.8948 H   0  0  0  0  0  0  0  0  0  0  0  0
   -3.0607    1.7412    1.9916 H   0  0  0  0  0  0  0  0  0  0  0  0
   -2.2191    0.1993    2.2420 H   0  0  0  0  0  0  0  0  0  0  0  0
   -2.6441    0.8915    1.5220 H   0  0  0  0  0  0  0  0  0  0  0  0
   -4.0585    1.7256   -0.2318 H   0  0  0  0  0  0  0  0  0  0  0  0
   -7.5237    0.2535    1.7771 H   0  0  0  0  0  0  0  0  0  0  0  0
   -6.1349   -0.5886    3.5405 H   0  0  0  0  0  0  0  0  0  0  0  0
   -6.9866    2.6353   -0.2831 H   0  0  0  0  0  0  0  0  0  0  0  0
   -6.5095    2.0774   -2.4935 H   0  0  0  0  0  0  0  0  0  0  0  0
   -6.3927    0.2904   -2.1631 H   0  0  0  0  0  0  0  0  0  0  0  0
   -5.0516    1.3590   -1.6886 H   0  0  0  0  0  0  0  0  0  0  0  0
  -10.1492    0.9270   -0.6820 H   0  0  0  0  0  0  0  0  0  0  0  0
  1  2  1  0
  2  3  1  0
  2  4  1  0
  4  5  1  0
  5  6  2  0
  6  7  1  0
  7  8  2  0
  8  9  1  0
  9 10  2  0
  8 11  1  0
 11 12  1  0
 11 13  1  0
 13 14  2  0
 13 15  1  0
 10  5  1  0
  1 16  1  0
  1 17  1  0
  1 18  1  0
  2 19  1  0
  3 20  1  0
  3 21  1  0
  3 22  1  0
  4 23  1  0
  4 24  1  0
  6 25  1  0
  7 26  1  0
  9 27  1  0
 10 28  1  0
 11 29  1  1
 12 30  1  0
 12 31  1  0
 12 32  1  0
 15 33  1  0
M  END
$$$$
