
     RDKit          3D

 33 33  0  0  0  0  0  0  0  0999 V2000
   -3.3997   -1.0951    0.0711 C   0  0  0  0  0  0  0  0  0  0  0  0
   -3.3005    0.3626    0.4063 C   0  0  0  0  0  0  0  0  0  0  0  0
   -4.2923    0.6838    1.5047 C   0  0  0  0  0  0  0  0  0  0  0  0
   -1.9184    0.7989    0.8044 C   0  0  0  0  0  0  0  0  0  0  0  0
   -1.2851   -0.0619    1.7989 C   0  0  0  0  0  0  0  0  0  0  0  0
   -1.6017   -0.8661    2.8693 C   0  0  0  0  0  0  0  0  0  0  0  0
   -0.6170   -1.5363    3.5669 C   0  0  0  0  0  0  0  0  0  0  0  0
    0.7160   -1.4337    3.2292 C   0  0  0  0  0  0  0  0  0  0  0  0
    1.0081   -0.6222    2.1534 C   0  0  0  0  0  0  0  0  0  0  0  0
    0.0345    0.0511    1.4500 C   0  0  0  0  0  0  0  0  0  0  0  0
    1.8016   -2.1139    3.9239 C   0  0  1  0  0  0  0  0  0  0  0  0
    2.0288   -1.3968    5.2661 C   0  0  0  0  0  0  0  0  0  0  0  0
    1.5371   -3.5172    4.2581 C   0  0  0  0  0  0  0  0  0  0  0  0
    1.0802   -3.7811    5.3971 O   0  0  0  0  0  0  0  0  0  0  0  0
    1.7529   -4.5860    3.4102 O   0  0  0  0  0  0  0  0  0  0  0  0
   -2.5449   -1.6973    0.3651 H   0  0  0  0  0  0  0  0  0  0  0  0
   -3.5675   -1.2254   -1.0377 H   0  0  0  0  0  0  0  0  0  0  0  0
   -4.3062   -1.5255    0.5456 H   0  0  0  0  0  0  0  0  0  0  0  0
   -3.5959    0.9594   -0.4816 H   0  0  0  0  0  0  0  0  0  0  0  0
   -4.5597   -0.2649    2.0026 H   0  0  0  0  0  0  0  0  0  0  0  0
   -5.1710    1.1486    1.0066 H   0  0  0  0  0  0  0  0  0  0  0  0
   -3.7968    1.4048    2.1965 H   0  0  0  0  0  0  0  0  0  0  0  0
   -1.9960    1.8665    1.1190 H   0  0  0  0  0  0  0  0  0  0  0  0
   -1.2758    0.8092   -0.1106 H   0  0  0  0  0  0  0  0  0  0  0  0
   -2.6496   -0.9856    3.1842 H   0  0  0  0  0  0  0  0  0  0  0  0
   -0.9312   -2.1495    4.3945 H   0  0  0  0  0  0  0  0  0  0  0  0
    2.0675   -0.5064    1.8414 H   0  0  0  0  0  0  0  0  0  0  0  0
    0.3723    0.6659    0.6167 H   0  0  0  0  0  0  0  0  0  0  0  0
    2.7266   -2.0447    3.3191 H   0  0  0  0  0  0  0  0  0  0  0  0
    3.0394   -0.9585    5.2716 H   0  0  0  0  0  0  0  0  0  0  0  0
    1.9100   -2.1118    6.1148 H   0  0  0  0  0  0  0  0  0  0  0  0
    1.2656   -0.6083    5.4149 H   0  0  0  0  0  0  0  0  0  0  0  0
    2.6486   -4.5892    2.9112 H   0  0  0  0  0  0  0  0  0  0  0  0
  1  2  1  0
  2  3  1  0
  2  4  1  0
  4  5  1  0
  5  6  2  0
  6  7  1  0
  7  8  2  0
  8  9  1  0
  9 10  2  0
  8 11  1  0
 11 12  1  0
 11 13  1  0
 13 14  2  0
 13 15  1  0
 10  5  1  0
  1 16  1  0
  1 17  1  0
  1 18  1  0
  2 19  1  0
  3 20  1  0
  3 21  1  0
  3 22  1  0
  4 23  1  0
  4 24  1  0
  6 25  1  0
  7 26  1  0
  9 27  1  0
 10 28  1  0
 11 29  1  6
 12 30  1  0
 12 31  1  0
 12 32  1  0
 15 33  1  0
M  END
$$$$
