
     RDKit          3D

 33 33  0  0  0  0  0  0  0  0999 V2000
   -3.3997   -1.0951    0.0711 C   0  0  0  0  0  0  0  0  0  0  0  0
   -3.3005    0.3626    0.4063 C   0  0  0  0  0  0  0  0  0  0  0  0
   -3.9470    0.6029    1.7545 C   0  0  0  0  0  0  0  0  0  0  0  0
   -1.8932    0.8905    0.3986 C   0  0  0  0  0  0  0  0  0  0  0  0
   -0.9168   -0.0243   -0.1854 C   0  0  0  0  0  0  0  0  0  0  0  0
   -1.0460   -1.3815   -0.0015 C   0  0  0  0  0  0  0  0  0  0  0  0
   -0.1316   -2.2600   -0.5469 C   0  0  0  0  0  0  0  0  0  0  0  0
    0.9432   -1.8254   -1.2936 C   0  0  0  0  0  0  0  0  0  0  0  0
    1.0511   -0.4614   -1.4639 C   0  0  0  0  0  0  0  0  0  0  0  0
    0.1452    0.4244   -0.9247 C   0  0  0  0  0  0  0  0  0  0  0  0
    1.9418   -2.6997   -1.8953 C   0  0  1  0  0  0  0  0  0  0  0  0
    2.8794   -3.1887   -0.7777 C   0  0  0  0  0  0  0  0  0  0  0  0
    1.4037   -3.9094   -2.5259 C   0  0  0  0  0  0  0  0  0  0  0  0
    0.2955   -4.3447   -2.1279 O   0  0  0  0  0  0  0  0  0  0  0  0
    2.0252   -4.6181   -3.5355 O   0  0  0  0  0  0  0  0  0  0  0  0
   -2.5449   -1.6973    0.3651 H   0  0  0  0  0  0  0  0  0  0  0  0
   -3.5675   -1.2254   -1.0377 H   0  0  0  0  0  0  0  0  0  0  0  0
   -4.3062   -1.5255    0.5456 H   0  0  0  0  0  0  0  0  0  0  0  0
   -3.8797    0.9460   -0.3393 H   0  0  0  0  0  0  0  0  0  0  0  0
   -3.1865    1.0562    2.4147 H   0  0  0  0  0  0  0  0  0  0  0  0
   -4.2737   -0.3926    2.1266 H   0  0  0  0  0  0  0  0  0  0  0  0
   -4.8217    1.2741    1.5863 H   0  0  0  0  0  0  0  0  0  0  0  0
   -1.6563    1.1907    1.4466 H   0  0  0  0  0  0  0  0  0  0  0  0
   -1.8778    1.8417   -0.1891 H   0  0  0  0  0  0  0  0  0  0  0  0
   -1.8846   -1.7857    0.5858 H   0  0  0  0  0  0  0  0  0  0  0  0
   -0.2897   -3.3097   -0.3659 H   0  0  0  0  0  0  0  0  0  0  0  0
    1.8996   -0.0608   -2.0576 H   0  0  0  0  0  0  0  0  0  0  0  0
    0.3224    1.4815   -1.1189 H   0  0  0  0  0  0  0  0  0  0  0  0
    2.5342   -2.1277   -2.6358 H   0  0  0  0  0  0  0  0  0  0  0  0
    2.5439   -2.7652    0.1824 H   0  0  0  0  0  0  0  0  0  0  0  0
    3.9317   -2.8841   -0.9908 H   0  0  0  0  0  0  0  0  0  0  0  0
    2.8792   -4.2951   -0.7322 H   0  0  0  0  0  0  0  0  0  0  0  0
    2.7624   -5.2667   -3.2402 H   0  0  0  0  0  0  0  0  0  0  0  0
  1  2  1  0
  2  3  1  0
  2  4  1  0
  4  5  1  0
  5  6  2  0
  6  7  1  0
  7  8  2  0
  8  9  1  0
  9 10  2  0
  8 11  1  0
 11 12  1  0
 11 13  1  0
 13 14  2  0
 13 15  1  0
 10  5  1  0
  1 16  1  0
  1 17  1  0
  1 18  1  0
  2 19  1  0
  3 20  1  0
  3 21  1  0
  3 22  1  0
  4 23  1  0
  4 24  1  0
  6 25  1  0
  7 26  1  0
  9 27  1  0
 10 28  1  0
 11 29  1  6
 12 30  1  0
 12 31  1  0
 12 32  1  0
 15 33  1  0
M  END
$$$$
