
     RDKit          3D

 33 33  0  0  0  0  0  0  0  0999 V2000
   -3.3997   -1.0951    0.0711 C   0  0  0  0  0  0  0  0  0  0  0  0
   -3.3005    0.3626    0.4063 C   0  0  0  0  0  0  0  0  0  0  0  0
   -1.9168    0.8585    0.0414 C   0  0  0  0  0  0  0  0  0  0  0  0
   -4.3516    1.2084   -0.2562 C   0  0  0  0  0  0  0  0  0  0  0  0
   -4.3014    2.6196    0.1140 C   0  0  0  0  0  0  0  0  0  0  0  0
   -4.8746    3.5681   -0.7012 C   0  0  0  0  0  0  0  0  0  0  0  0
   -4.8360    4.9065   -0.3658 C   0  0  0  0  0  0  0  0  0  0  0  0
   -4.2284    5.3530    0.7888 C   0  0  0  0  0  0  0  0  0  0  0  0
   -3.6613    4.3839    1.5891 C   0  0  0  0  0  0  0  0  0  0  0  0
   -3.6936    3.0460    1.2649 C   0  0  0  0  0  0  0  0  0  0  0  0
   -4.1536    6.7493    1.1992 C   0  0  1  0  0  0  0  0  0  0  0  0
   -3.9919    6.7861    2.7289 C   0  0  0  0  0  0  0  0  0  0  0  0
   -3.0112    7.4918    0.6567 C   0  0  0  0  0  0  0  0  0  0  0  0
   -3.2350    8.3936   -0.1875 O   0  0  0  0  0  0  0  0  0  0  0  0
   -1.6916    7.2768    1.0037 O   0  0  0  0  0  0  0  0  0  0  0  0
   -2.5449   -1.6973    0.3651 H   0  0  0  0  0  0  0  0  0  0  0  0
   -3.5675   -1.2254   -1.0377 H   0  0  0  0  0  0  0  0  0  0  0  0
   -4.3062   -1.5255    0.5456 H   0  0  0  0  0  0  0  0  0  0  0  0
   -3.4116    0.4906    1.5030 H   0  0  0  0  0  0  0  0  0  0  0  0
   -1.2519    0.6584    0.9002 H   0  0  0  0  0  0  0  0  0  0  0  0
   -2.0170    1.9481   -0.1558 H   0  0  0  0  0  0  0  0  0  0  0  0
   -1.6023    0.3125   -0.8788 H   0  0  0  0  0  0  0  0  0  0  0  0
   -5.3343    0.7238   -0.0458 H   0  0  0  0  0  0  0  0  0  0  0  0
   -4.2182    1.1314   -1.3637 H   0  0  0  0  0  0  0  0  0  0  0  0
   -5.3736    3.2697   -1.6357 H   0  0  0  0  0  0  0  0  0  0  0  0
   -5.3032    5.5978   -1.0466 H   0  0  0  0  0  0  0  0  0  0  0  0
   -3.1596    4.6923    2.5304 H   0  0  0  0  0  0  0  0  0  0  0  0
   -3.2158    2.3629    1.9660 H   0  0  0  0  0  0  0  0  0  0  0  0
   -5.0947    7.2648    0.9254 H   0  0  0  0  0  0  0  0  0  0  0  0
   -4.8889    7.2461    3.1730 H   0  0  0  0  0  0  0  0  0  0  0  0
   -3.0788    7.3629    3.0103 H   0  0  0  0  0  0  0  0  0  0  0  0
   -3.8471    5.7623    3.1250 H   0  0  0  0  0  0  0  0  0  0  0  0
   -1.2208    6.5047    0.5204 H   0  0  0  0  0  0  0  0  0  0  0  0
  1  2  1  0
  2  3  1  0
  2  4  1  0
  4  5  1  0
  5  6  2  0
  6  7  1  0
  7  8  2  0
  8  9  1  0
  9 10  2  0
  8 11  1  0
 11 12  1  0
 11 13  1  0
 13 14  2  0
 13 15  1  0
 10  5  1  0
  1 16  1  0
  1 17  1  0
  1 18  1  0
  2 19  1  0
  3 20  1  0
  3 21  1  0
  3 22  1  0
  4 23  1  0
  4 24  1  0
  6 25  1  0
  7 26  1  0
  9 27  1  0
 10 28  1  0
 11 29  1  1
 12 30  1  0
 12 31  1  0
 12 32  1  0
 15 33  1  0
M  END
$$$$
