
     RDKit          3D

 33 33  0  0  0  0  0  0  0  0999 V2000
   -3.3997   -1.0951    0.0711 C   0  0  0  0  0  0  0  0  0  0  0  0
   -3.3005    0.3626    0.4063 C   0  0  0  0  0  0  0  0  0  0  0  0
   -4.6124    0.8196    1.0091 C   0  0  0  0  0  0  0  0  0  0  0  0
   -2.1579    0.6957    1.3242 C   0  0  0  0  0  0  0  0  0  0  0  0
   -0.8393    0.5107    0.7258 C   0  0  0  0  0  0  0  0  0  0  0  0
   -0.0092    1.5914    0.5365 C   0  0  0  0  0  0  0  0  0  0  0  0
    1.2406    1.4337   -0.0279 C   0  0  0  0  0  0  0  0  0  0  0  0
    1.7125    0.2002   -0.4248 C   0  0  0  0  0  0  0  0  0  0  0  0
    0.8627   -0.8670   -0.2248 C   0  0  0  0  0  0  0  0  0  0  0  0
   -0.3860   -0.7218    0.3372 C   0  0  0  0  0  0  0  0  0  0  0  0
    3.0195   -0.0328   -1.0257 C   0  0  1  0  0  0  0  0  0  0  0  0
    2.9286    0.3355   -2.5168 C   0  0  0  0  0  0  0  0  0  0  0  0
    4.1063    0.7842   -0.4759 C   0  0  0  0  0  0  0  0  0  0  0  0
    4.7682    0.3235    0.4861 O   0  0  0  0  0  0  0  0  0  0  0  0
    4.4653    2.0359   -0.9367 O   0  0  0  0  0  0  0  0  0  0  0  0
   -2.5449   -1.6973    0.3651 H   0  0  0  0  0  0  0  0  0  0  0  0
   -3.5675   -1.2254   -1.0377 H   0  0  0  0  0  0  0  0  0  0  0  0
   -4.3062   -1.5255    0.5456 H   0  0  0  0  0  0  0  0  0  0  0  0
   -3.1555    0.9405   -0.5300 H   0  0  0  0  0  0  0  0  0  0  0  0
   -5.4118    0.5957    0.2807 H   0  0  0  0  0  0  0  0  0  0  0  0
   -4.5116    1.9126    1.1859 H   0  0  0  0  0  0  0  0  0  0  0  0
   -4.7436    0.2692    1.9702 H   0  0  0  0  0  0  0  0  0  0  0  0
   -2.3135    0.1064    2.2587 H   0  0  0  0  0  0  0  0  0  0  0  0
   -2.2558    1.7659    1.6332 H   0  0  0  0  0  0  0  0  0  0  0  0
   -0.3332    2.6002    0.8343 H   0  0  0  0  0  0  0  0  0  0  0  0
    1.8411    2.3194   -0.1486 H   0  0  0  0  0  0  0  0  0  0  0  0
    1.1962   -1.8819   -0.5277 H   0  0  0  0  0  0  0  0  0  0  0  0
   -0.9779   -1.6292    0.4507 H   0  0  0  0  0  0  0  0  0  0  0  0
    3.2803   -1.1054   -0.9363 H   0  0  0  0  0  0  0  0  0  0  0  0
    3.0566   -0.5775   -3.1198 H   0  0  0  0  0  0  0  0  0  0  0  0
    3.7089    1.0885   -2.7804 H   0  0  0  0  0  0  0  0  0  0  0  0
    1.9523    0.8094   -2.7370 H   0  0  0  0  0  0  0  0  0  0  0  0
    4.8524    2.6775   -0.2368 H   0  0  0  0  0  0  0  0  0  0  0  0
  1  2  1  0
  2  3  1  0
  2  4  1  0
  4  5  1  0
  5  6  2  0
  6  7  1  0
  7  8  2  0
  8  9  1  0
  9 10  2  0
  8 11  1  0
 11 12  1  0
 11 13  1  0
 13 14  2  0
 13 15  1  0
 10  5  1  0
  1 16  1  0
  1 17  1  0
  1 18  1  0
  2 19  1  0
  3 20  1  0
  3 21  1  0
  3 22  1  0
  4 23  1  0
  4 24  1  0
  6 25  1  0
  7 26  1  0
  9 27  1  0
 10 28  1  0
 11 29  1  6
 12 30  1  0
 12 31  1  0
 12 32  1  0
 15 33  1  0
M  END
$$$$
