
     RDKit          3D

 33 33  0  0  0  0  0  0  0  0999 V2000
   -3.3997   -1.0951    0.0711 C   0  0  0  0  0  0  0  0  0  0  0  0
   -3.3005    0.3626    0.4063 C   0  0  0  0  0  0  0  0  0  0  0  0
   -2.6754    1.0950   -0.7627 C   0  0  0  0  0  0  0  0  0  0  0  0
   -4.6160    0.9895    0.7743 C   0  0  0  0  0  0  0  0  0  0  0  0
   -4.5076    2.0784    1.7406 C   0  0  0  0  0  0  0  0  0  0  0  0
   -5.0061    3.3239    1.4361 C   0  0  0  0  0  0  0  0  0  0  0  0
   -4.9118    4.3642    2.3384 C   0  0  0  0  0  0  0  0  0  0  0  0
   -4.3203    4.2078    3.5743 C   0  0  0  0  0  0  0  0  0  0  0  0
   -3.8285    2.9509    3.8562 C   0  0  0  0  0  0  0  0  0  0  0  0
   -3.9169    1.9057    2.9641 C   0  0  0  0  0  0  0  0  0  0  0  0
   -4.1894    5.2638    4.5699 C   0  0  1  0  0  0  0  0  0  0  0  0
   -2.7286    5.7471    4.5597 C   0  0  0  0  0  0  0  0  0  0  0  0
   -5.0079    6.4544    4.3183 C   0  0  0  0  0  0  0  0  0  0  0  0
   -4.6509    7.2394    3.4061 O   0  0  0  0  0  0  0  0  0  0  0  0
   -6.1548    6.7866    5.0127 O   0  0  0  0  0  0  0  0  0  0  0  0
   -2.5449   -1.6973    0.3651 H   0  0  0  0  0  0  0  0  0  0  0  0
   -3.5675   -1.2254   -1.0377 H   0  0  0  0  0  0  0  0  0  0  0  0
   -4.3062   -1.5255    0.5456 H   0  0  0  0  0  0  0  0  0  0  0  0
   -2.6168    0.4898    1.2711 H   0  0  0  0  0  0  0  0  0  0  0  0
   -2.6096    2.1637   -0.4920 H   0  0  0  0  0  0  0  0  0  0  0  0
   -3.3503    0.9318   -1.6311 H   0  0  0  0  0  0  0  0  0  0  0  0
   -1.6744    0.6371   -0.9422 H   0  0  0  0  0  0  0  0  0  0  0  0
   -5.2860    0.1610    1.1050 H   0  0  0  0  0  0  0  0  0  0  0  0
   -5.0860    1.3924   -0.1568 H   0  0  0  0  0  0  0  0  0  0  0  0
   -5.4889    3.5072    0.4641 H   0  0  0  0  0  0  0  0  0  0  0  0
   -5.3216    5.3139    2.0388 H   0  0  0  0  0  0  0  0  0  0  0  0
   -3.3427    2.7734    4.8388 H   0  0  0  0  0  0  0  0  0  0  0  0
   -3.4966    0.9536    3.2856 H   0  0  0  0  0  0  0  0  0  0  0  0
   -4.4255    4.8566    5.5723 H   0  0  0  0  0  0  0  0  0  0  0  0
   -2.4540    6.0359    3.5327 H   0  0  0  0  0  0  0  0  0  0  0  0
   -2.0499    4.9435    4.9326 H   0  0  0  0  0  0  0  0  0  0  0  0
   -2.6025    6.6050    5.2484 H   0  0  0  0  0  0  0  0  0  0  0  0
   -6.7893    7.4415    4.5439 H   0  0  0  0  0  0  0  0  0  0  0  0
  1  2  1  0
  2  3  1  0
  2  4  1  0
  4  5  1  0
  5  6  2  0
  6  7  1  0
  7  8  2  0
  8  9  1  0
  9 10  2  0
  8 11  1  0
 11 12  1  0
 11 13  1  0
 13 14  2  0
 13 15  1  0
 10  5  1  0
  1 16  1  0
  1 17  1  0
  1 18  1  0
  2 19  1  0
  3 20  1  0
  3 21  1  0
  3 22  1  0
  4 23  1  0
  4 24  1  0
  6 25  1  0
  7 26  1  0
  9 27  1  0
 10 28  1  0
 11 29  1  1
 12 30  1  0
 12 31  1  0
 12 32  1  0
 15 33  1  0
M  END
$$$$
