
     RDKit          3D

 33 33  0  0  0  0  0  0  0  0999 V2000
   -3.3997   -1.0951    0.0711 C   0  0  0  0  0  0  0  0  0  0  0  0
   -3.3005    0.3626    0.4063 C   0  0  0  0  0  0  0  0  0  0  0  0
   -1.8524    0.7056    0.6875 C   0  0  0  0  0  0  0  0  0  0  0  0
   -3.8558    1.2670   -0.6580 C   0  0  0  0  0  0  0  0  0  0  0  0
   -4.4599    0.5612   -1.7841 C   0  0  0  0  0  0  0  0  0  0  0  0
   -4.8127    1.2499   -2.9216 C   0  0  0  0  0  0  0  0  0  0  0  0
   -5.3848    0.5976   -3.9952 C   0  0  0  0  0  0  0  0  0  0  0  0
   -5.6278   -0.7597   -3.9803 C   0  0  0  0  0  0  0  0  0  0  0  0
   -5.2656   -1.4278   -2.8297 C   0  0  0  0  0  0  0  0  0  0  0  0
   -4.6943   -0.7878   -1.7526 C   0  0  0  0  0  0  0  0  0  0  0  0
   -6.2276   -1.5063   -5.0786 C   0  0  1  0  0  0  0  0  0  0  0  0
   -5.2910   -1.3962   -6.2944 C   0  0  0  0  0  0  0  0  0  0  0  0
   -6.3958   -2.9418   -4.8301 C   0  0  0  0  0  0  0  0  0  0  0  0
   -5.7067   -3.4733   -3.9254 O   0  0  0  0  0  0  0  0  0  0  0  0
   -7.2624   -3.7674   -5.5196 O   0  0  0  0  0  0  0  0  0  0  0  0
   -2.5449   -1.6973    0.3651 H   0  0  0  0  0  0  0  0  0  0  0  0
   -3.5675   -1.2254   -1.0377 H   0  0  0  0  0  0  0  0  0  0  0  0
   -4.3062   -1.5255    0.5456 H   0  0  0  0  0  0  0  0  0  0  0  0
   -3.8671    0.5591    1.3400 H   0  0  0  0  0  0  0  0  0  0  0  0
   -1.3688    0.9354   -0.2784 H   0  0  0  0  0  0  0  0  0  0  0  0
   -1.4059   -0.1923    1.1676 H   0  0  0  0  0  0  0  0  0  0  0  0
   -1.8487    1.5759    1.3851 H   0  0  0  0  0  0  0  0  0  0  0  0
   -3.0332    1.9608   -0.9523 H   0  0  0  0  0  0  0  0  0  0  0  0
   -4.6365    1.9188   -0.1932 H   0  0  0  0  0  0  0  0  0  0  0  0
   -4.6422    2.3351   -2.9899 H   0  0  0  0  0  0  0  0  0  0  0  0
   -5.6377    1.1942   -4.8553 H   0  0  0  0  0  0  0  0  0  0  0  0
   -5.4406   -2.5225   -2.7679 H   0  0  0  0  0  0  0  0  0  0  0  0
   -4.4459   -1.4084   -0.8926 H   0  0  0  0  0  0  0  0  0  0  0  0
   -7.2063   -1.0577   -5.3380 H   0  0  0  0  0  0  0  0  0  0  0  0
   -5.8352   -1.7189   -7.1963 H   0  0  0  0  0  0  0  0  0  0  0  0
   -4.3811   -2.0245   -6.1433 H   0  0  0  0  0  0  0  0  0  0  0  0
   -4.9337   -0.3547   -6.4115 H   0  0  0  0  0  0  0  0  0  0  0  0
   -6.8734   -4.6616   -5.8364 H   0  0  0  0  0  0  0  0  0  0  0  0
  1  2  1  0
  2  3  1  0
  2  4  1  0
  4  5  1  0
  5  6  2  0
  6  7  1  0
  7  8  2  0
  8  9  1  0
  9 10  2  0
  8 11  1  0
 11 12  1  0
 11 13  1  0
 13 14  2  0
 13 15  1  0
 10  5  1  0
  1 16  1  0
  1 17  1  0
  1 18  1  0
  2 19  1  0
  3 20  1  0
  3 21  1  0
  3 22  1  0
  4 23  1  0
  4 24  1  0
  6 25  1  0
  7 26  1  0
  9 27  1  0
 10 28  1  0
 11 29  1  6
 12 30  1  0
 12 31  1  0
 12 32  1  0
 15 33  1  0
M  END
$$$$
