
     RDKit          3D

 33 33  0  0  0  0  0  0  0  0999 V2000
   -3.3997   -1.0951    0.0711 C   0  0  0  0  0  0  0  0  0  0  0  0
   -3.3005    0.3626    0.4063 C   0  0  0  0  0  0  0  0  0  0  0  0
   -4.0734    1.1585   -0.6246 C   0  0  0  0  0  0  0  0  0  0  0  0
   -3.7763    0.6984    1.7918 C   0  0  0  0  0  0  0  0  0  0  0  0
   -3.8208    2.1296    2.0761 C   0  0  0  0  0  0  0  0  0  0  0  0
   -3.0457    3.0026    1.3483 C   0  0  0  0  0  0  0  0  0  0  0  0
   -3.0761    4.3586    1.6044 C   0  0  0  0  0  0  0  0  0  0  0  0
   -3.8752    4.8981    2.5902 C   0  0  0  0  0  0  0  0  0  0  0  0
   -4.6426    4.0035    3.3057 C   0  0  0  0  0  0  0  0  0  0  0  0
   -4.6205    2.6489    3.0593 C   0  0  0  0  0  0  0  0  0  0  0  0
   -3.9527    6.3179    2.9096 C   0  0  1  0  0  0  0  0  0  0  0  0
   -2.8972    7.0525    2.0648 C   0  0  0  0  0  0  0  0  0  0  0  0
   -5.2354    6.9532    2.5908 C   0  0  0  0  0  0  0  0  0  0  0  0
   -5.9349    6.4541    1.6758 O   0  0  0  0  0  0  0  0  0  0  0  0
   -5.7430    8.0710    3.2239 O   0  0  0  0  0  0  0  0  0  0  0  0
   -2.5449   -1.6973    0.3651 H   0  0  0  0  0  0  0  0  0  0  0  0
   -3.5675   -1.2254   -1.0377 H   0  0  0  0  0  0  0  0  0  0  0  0
   -4.3062   -1.5255    0.5456 H   0  0  0  0  0  0  0  0  0  0  0  0
   -2.2397    0.6801    0.3318 H   0  0  0  0  0  0  0  0  0  0  0  0
   -4.5131    2.0325   -0.1124 H   0  0  0  0  0  0  0  0  0  0  0  0
   -4.8573    0.4775   -1.0221 H   0  0  0  0  0  0  0  0  0  0  0  0
   -3.3532    1.4497   -1.4249 H   0  0  0  0  0  0  0  0  0  0  0  0
   -3.1380    0.1197    2.5005 H   0  0  0  0  0  0  0  0  0  0  0  0
   -4.8067    0.2833    1.9198 H   0  0  0  0  0  0  0  0  0  0  0  0
   -2.3883    2.6285    0.5487 H   0  0  0  0  0  0  0  0  0  0  0  0
   -2.4455    4.9877    0.9991 H   0  0  0  0  0  0  0  0  0  0  0  0
   -5.3034    4.3881    4.1109 H   0  0  0  0  0  0  0  0  0  0  0  0
   -5.2651    2.0296    3.6819 H   0  0  0  0  0  0  0  0  0  0  0  0
   -3.7212    6.4675    3.9822 H   0  0  0  0  0  0  0  0  0  0  0  0
   -3.2277    7.0694    1.0140 H   0  0  0  0  0  0  0  0  0  0  0  0
   -1.9065    6.5464    2.1529 H   0  0  0  0  0  0  0  0  0  0  0  0
   -2.7538    8.0842    2.4406 H   0  0  0  0  0  0  0  0  0  0  0  0
   -5.6556    8.0865    4.2454 H   0  0  0  0  0  0  0  0  0  0  0  0
  1  2  1  0
  2  3  1  0
  2  4  1  0
  4  5  1  0
  5  6  2  0
  6  7  1  0
  7  8  2  0
  8  9  1  0
  9 10  2  0
  8 11  1  0
 11 12  1  0
 11 13  1  0
 13 14  2  0
 13 15  1  0
 10  5  1  0
  1 16  1  0
  1 17  1  0
  1 18  1  0
  2 19  1  0
  3 20  1  0
  3 21  1  0
  3 22  1  0
  4 23  1  0
  4 24  1  0
  6 25  1  0
  7 26  1  0
  9 27  1  0
 10 28  1  0
 11 29  1  1
 12 30  1  0
 12 31  1  0
 12 32  1  0
 15 33  1  0
M  END
$$$$
