
     RDKit          3D

 33 33  0  0  0  0  0  0  0  0999 V2000
   -3.3997   -1.0951    0.0711 C   0  0  0  0  0  0  0  0  0  0  0  0
   -3.3005    0.3626    0.4063 C   0  0  0  0  0  0  0  0  0  0  0  0
   -3.9095    0.5961    1.7730 C   0  0  0  0  0  0  0  0  0  0  0  0
   -1.8976    0.8999    0.3591 C   0  0  0  0  0  0  0  0  0  0  0  0
   -0.9454    0.0215   -0.3140 C   0  0  0  0  0  0  0  0  0  0  0  0
   -0.5645   -1.1630    0.2729 C   0  0  0  0  0  0  0  0  0  0  0  0
    0.3347   -2.0048   -0.3502 C   0  0  0  0  0  0  0  0  0  0  0  0
    0.8885   -1.7032   -1.5766 C   0  0  0  0  0  0  0  0  0  0  0  0
    0.4914   -0.5111   -2.1444 C   0  0  0  0  0  0  0  0  0  0  0  0
   -0.4047    0.3365   -1.5323 C   0  0  0  0  0  0  0  0  0  0  0  0
    1.8413   -2.5476   -2.2857 C   0  0  1  0  0  0  0  0  0  0  0  0
    1.2725   -3.9767   -2.3231 C   0  0  0  0  0  0  0  0  0  0  0  0
    2.0772   -2.1727   -3.6838 C   0  0  0  0  0  0  0  0  0  0  0  0
    2.7694   -2.9400   -4.3964 O   0  0  0  0  0  0  0  0  0  0  0  0
    1.5932   -1.0288   -4.2881 O   0  0  0  0  0  0  0  0  0  0  0  0
   -2.5449   -1.6973    0.3651 H   0  0  0  0  0  0  0  0  0  0  0  0
   -3.5675   -1.2254   -1.0377 H   0  0  0  0  0  0  0  0  0  0  0  0
   -4.3062   -1.5255    0.5456 H   0  0  0  0  0  0  0  0  0  0  0  0
   -3.9047    0.9435   -0.3211 H   0  0  0  0  0  0  0  0  0  0  0  0
   -3.3644    1.4331    2.2442 H   0  0  0  0  0  0  0  0  0  0  0  0
   -3.7779   -0.3512    2.3401 H   0  0  0  0  0  0  0  0  0  0  0  0
   -4.9904    0.8231    1.6185 H   0  0  0  0  0  0  0  0  0  0  0  0
   -1.6132    1.1499    1.4086 H   0  0  0  0  0  0  0  0  0  0  0  0
   -1.9140    1.8788   -0.1810 H   0  0  0  0  0  0  0  0  0  0  0  0
   -0.9743   -1.4556    1.2516 H   0  0  0  0  0  0  0  0  0  0  0  0
    0.5912   -2.9165    0.1621 H   0  0  0  0  0  0  0  0  0  0  0  0
    0.9089   -0.2224   -3.1320 H   0  0  0  0  0  0  0  0  0  0  0  0
   -0.6513    1.2533   -2.0663 H   0  0  0  0  0  0  0  0  0  0  0  0
    2.8033   -2.5585   -1.7374 H   0  0  0  0  0  0  0  0  0  0  0  0
    0.7312   -4.1223   -3.2714 H   0  0  0  0  0  0  0  0  0  0  0  0
    0.5912   -4.1477   -1.4559 H   0  0  0  0  0  0  0  0  0  0  0  0
    2.0894   -4.7183   -2.2275 H   0  0  0  0  0  0  0  0  0  0  0  0
    2.2932   -0.3217   -4.5358 H   0  0  0  0  0  0  0  0  0  0  0  0
  1  2  1  0
  2  3  1  0
  2  4  1  0
  4  5  1  0
  5  6  2  0
  6  7  1  0
  7  8  2  0
  8  9  1  0
  9 10  2  0
  8 11  1  0
 11 12  1  0
 11 13  1  0
 13 14  2  0
 13 15  1  0
 10  5  1  0
  1 16  1  0
  1 17  1  0
  1 18  1  0
  2 19  1  0
  3 20  1  0
  3 21  1  0
  3 22  1  0
  4 23  1  0
  4 24  1  0
  6 25  1  0
  7 26  1  0
  9 27  1  0
 10 28  1  0
 11 29  1  1
 12 30  1  0
 12 31  1  0
 12 32  1  0
 15 33  1  0
M  END
$$$$
