
     RDKit          3D

 33 33  0  0  0  0  0  0  0  0999 V2000
   -3.3997   -1.0951    0.0711 C   0  0  0  0  0  0  0  0  0  0  0  0
   -3.3005    0.3626    0.4063 C   0  0  0  0  0  0  0  0  0  0  0  0
   -3.2173    0.5174    1.9105 C   0  0  0  0  0  0  0  0  0  0  0  0
   -2.1447    1.0582   -0.2566 C   0  0  0  0  0  0  0  0  0  0  0  0
   -2.2663    1.1652   -1.7075 C   0  0  0  0  0  0  0  0  0  0  0  0
   -2.8500    2.2759   -2.2715 C   0  0  0  0  0  0  0  0  0  0  0  0
   -2.9727    2.3927   -3.6414 C   0  0  0  0  0  0  0  0  0  0  0  0
   -2.5215    1.4135   -4.5012 C   0  0  0  0  0  0  0  0  0  0  0  0
   -1.9405    0.3104   -3.9124 C   0  0  0  0  0  0  0  0  0  0  0  0
   -1.8127    0.1830   -2.5473 C   0  0  0  0  0  0  0  0  0  0  0  0
   -2.6209    1.4762   -5.9538 C   0  0  1  0  0  0  0  0  0  0  0  0
   -3.9001    2.2541   -6.3086 C   0  0  0  0  0  0  0  0  0  0  0  0
   -1.5224    2.1856   -6.6177 C   0  0  0  0  0  0  0  0  0  0  0  0
   -0.6686    1.5089   -7.2413 O   0  0  0  0  0  0  0  0  0  0  0  0
   -1.3487    3.5558   -6.6125 O   0  0  0  0  0  0  0  0  0  0  0  0
   -2.5449   -1.6973    0.3651 H   0  0  0  0  0  0  0  0  0  0  0  0
   -3.5675   -1.2254   -1.0377 H   0  0  0  0  0  0  0  0  0  0  0  0
   -4.3062   -1.5255    0.5456 H   0  0  0  0  0  0  0  0  0  0  0  0
   -4.2296    0.8737    0.0790 H   0  0  0  0  0  0  0  0  0  0  0  0
   -2.4545   -0.1914    2.2785 H   0  0  0  0  0  0  0  0  0  0  0  0
   -4.2279    0.2758    2.3061 H   0  0  0  0  0  0  0  0  0  0  0  0
   -2.9494    1.5798    2.1188 H   0  0  0  0  0  0  0  0  0  0  0  0
   -1.2185    0.5346    0.0788 H   0  0  0  0  0  0  0  0  0  0  0  0
   -2.0668    2.0906    0.1657 H   0  0  0  0  0  0  0  0  0  0  0  0
   -3.2284    3.0894   -1.6339 H   0  0  0  0  0  0  0  0  0  0  0  0
   -3.4390    3.2868   -4.0190 H   0  0  0  0  0  0  0  0  0  0  0  0
   -1.5610   -0.5064   -4.5618 H   0  0  0  0  0  0  0  0  0  0  0  0
   -1.3385   -0.7283   -2.1851 H   0  0  0  0  0  0  0  0  0  0  0  0
   -2.7002    0.4500   -6.3623 H   0  0  0  0  0  0  0  0  0  0  0  0
   -4.7592    1.5652   -6.2758 H   0  0  0  0  0  0  0  0  0  0  0  0
   -3.8083    2.7137   -7.3214 H   0  0  0  0  0  0  0  0  0  0  0  0
   -4.0501    3.0915   -5.5997 H   0  0  0  0  0  0  0  0  0  0  0  0
   -0.7767    3.9384   -7.3726 H   0  0  0  0  0  0  0  0  0  0  0  0
  1  2  1  0
  2  3  1  0
  2  4  1  0
  4  5  1  0
  5  6  2  0
  6  7  1  0
  7  8  2  0
  8  9  1  0
  9 10  2  0
  8 11  1  0
 11 12  1  0
 11 13  1  0
 13 14  2  0
 13 15  1  0
 10  5  1  0
  1 16  1  0
  1 17  1  0
  1 18  1  0
  2 19  1  0
  3 20  1  0
  3 21  1  0
  3 22  1  0
  4 23  1  0
  4 24  1  0
  6 25  1  0
  7 26  1  0
  9 27  1  0
 10 28  1  0
 11 29  1  6
 12 30  1  0
 12 31  1  0
 12 32  1  0
 15 33  1  0
M  END
$$$$
