
     RDKit          3D

 33 33  0  0  0  0  0  0  0  0999 V2000
   -3.3997   -1.0951    0.0711 C   0  0  0  0  0  0  0  0  0  0  0  0
   -3.3005    0.3626    0.4063 C   0  0  0  0  0  0  0  0  0  0  0  0
   -4.6966    0.9403    0.5088 C   0  0  0  0  0  0  0  0  0  0  0  0
   -2.5240    0.6429    1.6623 C   0  0  0  0  0  0  0  0  0  0  0  0
   -2.5861   -0.4278    2.6527 C   0  0  0  0  0  0  0  0  0  0  0  0
   -1.7398   -0.4151    3.7372 C   0  0  0  0  0  0  0  0  0  0  0  0
   -1.7856   -1.4197    4.6827 C   0  0  0  0  0  0  0  0  0  0  0  0
   -2.6712   -2.4725    4.5876 C   0  0  0  0  0  0  0  0  0  0  0  0
   -3.5087   -2.4630    3.4923 C   0  0  0  0  0  0  0  0  0  0  0  0
   -3.4721   -1.4664    2.5428 C   0  0  0  0  0  0  0  0  0  0  0  0
   -2.7695   -3.5622    5.5501 C   0  0  1  0  0  0  0  0  0  0  0  0
   -3.7153   -4.6265    4.9668 C   0  0  0  0  0  0  0  0  0  0  0  0
   -1.5076   -4.2557    5.8285 C   0  0  0  0  0  0  0  0  0  0  0  0
   -0.4427   -3.7471    5.4005 O   0  0  0  0  0  0  0  0  0  0  0  0
   -1.3942   -5.4386    6.5326 O   0  0  0  0  0  0  0  0  0  0  0  0
   -2.5449   -1.6973    0.3651 H   0  0  0  0  0  0  0  0  0  0  0  0
   -3.5675   -1.2254   -1.0377 H   0  0  0  0  0  0  0  0  0  0  0  0
   -4.3062   -1.5255    0.5456 H   0  0  0  0  0  0  0  0  0  0  0  0
   -2.7913    0.8918   -0.4258 H   0  0  0  0  0  0  0  0  0  0  0  0
   -5.3991    0.0980    0.6375 H   0  0  0  0  0  0  0  0  0  0  0  0
   -4.8797    1.4866   -0.4421 H   0  0  0  0  0  0  0  0  0  0  0  0
   -4.7022    1.6382    1.3787 H   0  0  0  0  0  0  0  0  0  0  0  0
   -2.8767    1.6296    2.0452 H   0  0  0  0  0  0  0  0  0  0  0  0
   -1.4526    0.8024    1.3850 H   0  0  0  0  0  0  0  0  0  0  0  0
   -1.0120    0.4007    3.8650 H   0  0  0  0  0  0  0  0  0  0  0  0
   -1.0965   -1.3508    5.5073 H   0  0  0  0  0  0  0  0  0  0  0  0
   -4.2404   -3.2892    3.3699 H   0  0  0  0  0  0  0  0  0  0  0  0
   -4.1768   -1.5540    1.7168 H   0  0  0  0  0  0  0  0  0  0  0  0
   -3.1993   -3.1803    6.4965 H   0  0  0  0  0  0  0  0  0  0  0  0
   -3.1353   -5.3077    4.3241 H   0  0  0  0  0  0  0  0  0  0  0  0
   -4.5335   -4.1423    4.3824 H   0  0  0  0  0  0  0  0  0  0  0  0
   -4.2079   -5.1914    5.7820 H   0  0  0  0  0  0  0  0  0  0  0  0
   -0.7904   -5.4115    7.3609 H   0  0  0  0  0  0  0  0  0  0  0  0
  1  2  1  0
  2  3  1  0
  2  4  1  0
  4  5  1  0
  5  6  2  0
  6  7  1  0
  7  8  2  0
  8  9  1  0
  9 10  2  0
  8 11  1  0
 11 12  1  0
 11 13  1  0
 13 14  2  0
 13 15  1  0
 10  5  1  0
  1 16  1  0
  1 17  1  0
  1 18  1  0
  2 19  1  0
  3 20  1  0
  3 21  1  0
  3 22  1  0
  4 23  1  0
  4 24  1  0
  6 25  1  0
  7 26  1  0
  9 27  1  0
 10 28  1  0
 11 29  1  1
 12 30  1  0
 12 31  1  0
 12 32  1  0
 15 33  1  0
M  END
$$$$
