
     RDKit          3D

 33 33  0  0  0  0  0  0  0  0999 V2000
   -3.3997   -1.0951    0.0711 C   0  0  0  0  0  0  0  0  0  0  0  0
   -3.3005    0.3626    0.4063 C   0  0  0  0  0  0  0  0  0  0  0  0
   -3.0163    1.1409   -0.8614 C   0  0  0  0  0  0  0  0  0  0  0  0
   -4.5197    0.9093    1.0944 C   0  0  0  0  0  0  0  0  0  0  0  0
   -4.2291    1.6727    2.3044 C   0  0  0  0  0  0  0  0  0  0  0  0
   -5.1592    2.5543    2.8047 C   0  0  0  0  0  0  0  0  0  0  0  0
   -4.9001    3.2837    3.9476 C   0  0  0  0  0  0  0  0  0  0  0  0
   -3.7108    3.1658    4.6354 C   0  0  0  0  0  0  0  0  0  0  0  0
   -2.7949    2.2763    4.1147 C   0  0  0  0  0  0  0  0  0  0  0  0
   -3.0422    1.5434    2.9755 C   0  0  0  0  0  0  0  0  0  0  0  0
   -3.3765    3.9058    5.8456 C   0  0  1  0  0  0  0  0  0  0  0  0
   -4.5747    3.8103    6.8062 C   0  0  0  0  0  0  0  0  0  0  0  0
   -2.2239    3.3859    6.5885 C   0  0  0  0  0  0  0  0  0  0  0  0
   -2.0157    3.8246    7.7461 O   0  0  0  0  0  0  0  0  0  0  0  0
   -1.3370    2.4405    6.1116 O   0  0  0  0  0  0  0  0  0  0  0  0
   -2.5449   -1.6973    0.3651 H   0  0  0  0  0  0  0  0  0  0  0  0
   -3.5675   -1.2254   -1.0377 H   0  0  0  0  0  0  0  0  0  0  0  0
   -4.3062   -1.5255    0.5456 H   0  0  0  0  0  0  0  0  0  0  0  0
   -2.4359    0.5205    1.0839 H   0  0  0  0  0  0  0  0  0  0  0  0
   -3.9863    1.4502   -1.2892 H   0  0  0  0  0  0  0  0  0  0  0  0
   -2.4707    0.4479   -1.5383 H   0  0  0  0  0  0  0  0  0  0  0  0
   -2.3771    2.0102   -0.5789 H   0  0  0  0  0  0  0  0  0  0  0  0
   -5.2083    0.0477    1.2619 H   0  0  0  0  0  0  0  0  0  0  0  0
   -5.0571    1.5789    0.3781 H   0  0  0  0  0  0  0  0  0  0  0  0
   -6.1264    2.6895    2.2971 H   0  0  0  0  0  0  0  0  0  0  0  0
   -5.6697    3.9562    4.2868 H   0  0  0  0  0  0  0  0  0  0  0  0
   -1.8212    2.1451    4.6321 H   0  0  0  0  0  0  0  0  0  0  0  0
   -2.2517    0.8690    2.6486 H   0  0  0  0  0  0  0  0  0  0  0  0
   -3.2046    4.9698    5.5912 H   0  0  0  0  0  0  0  0  0  0  0  0
   -5.4149    4.3883    6.3896 H   0  0  0  0  0  0  0  0  0  0  0  0
   -4.2972    4.1989    7.8149 H   0  0  0  0  0  0  0  0  0  0  0  0
   -4.8684    2.7524    6.9507 H   0  0  0  0  0  0  0  0  0  0  0  0
   -1.4145    1.5047    6.5234 H   0  0  0  0  0  0  0  0  0  0  0  0
  1  2  1  0
  2  3  1  0
  2  4  1  0
  4  5  1  0
  5  6  2  0
  6  7  1  0
  7  8  2  0
  8  9  1  0
  9 10  2  0
  8 11  1  0
 11 12  1  0
 11 13  1  0
 13 14  2  0
 13 15  1  0
 10  5  1  0
  1 16  1  0
  1 17  1  0
  1 18  1  0
  2 19  1  0
  3 20  1  0
  3 21  1  0
  3 22  1  0
  4 23  1  0
  4 24  1  0
  6 25  1  0
  7 26  1  0
  9 27  1  0
 10 28  1  0
 11 29  1  6
 12 30  1  0
 12 31  1  0
 12 32  1  0
 15 33  1  0
M  END
$$$$
